# CIF file generated by openbabel 2.4.1, see http://openbabel.sf.net
data_I
_chemical_name_common '?'
_cell_length_a 9.942
_cell_length_b 9.942
_cell_length_c 15.764
_cell_angle_alpha 90
_cell_angle_beta 90
_cell_angle_gamma 90
_space_group_name_H-M_alt 'P 1'
_space_group_name_Hall 'P 1'
loop_
    _symmetry_equiv_pos_as_xyz
    x,y,z
loop_
    _atom_site_label
    _atom_site_type_symbol
    _atom_site_fract_x
    _atom_site_fract_y
    _atom_site_fract_z
    _atom_site_occupancy
    Nb1     Nb   0.00000   0.00000   0.00000   1.000
    Ni1     Ni   0.00000   0.00000   0.25000   1.000
    F1      F    0.00000   0.00000   0.12310   0.500
    F2      F    0.00800   0.19080   0.00000   1.000
    N1      N    0.15140   0.15140   0.25000   1.000
    C1A     C    0.24210   0.16010   0.31200   1.000
    H1A     H    0.23920   0.09850   0.35640   1.000
    Nb1     Nb   0.00000   0.00000   0.50000   1.000
    Nb1     Nb   0.50000   0.50000   0.50000   1.000
    Nb1     Nb   0.50000   0.50000   0.00000   1.000
    Ni1     Ni   0.00000   0.00000   0.75000   1.000
    Ni1     Ni   0.50000   0.50000   0.75000   1.000
    Ni1     Ni   0.50000   0.50000   0.25000   1.000
    O1      O    0.00000   0.00000   0.37690   0.500
    O1      O    0.00000   0.00000   0.87690   0.500
    F1      F    0.00000   0.00000   0.62310   0.500
    F1      F    0.50000   0.50000   0.62310   0.500
    O1      O    0.50000   0.50000   0.87690   0.500
    O1      O    0.50000   0.50000   0.37690   0.500
    F1      F    0.50000   0.50000   0.12310   0.500
    F2      F    0.99200   0.80920   0.00000   1.000
    F2      F    0.80920   0.00800   0.00000   1.000
    F2      F    0.19080   0.99200   0.00000   1.000
    F2      F    0.99200   0.19080   0.50000   1.000
    F2      F    0.00800   0.80920   0.50000   1.000
    F2      F    0.19080   0.00800   0.50000   1.000
    F2      F    0.80920   0.99200   0.50000   1.000
    F2      F    0.50800   0.69080   0.50000   1.000
    F2      F    0.49200   0.30920   0.50000   1.000
    F2      F    0.30920   0.50800   0.50000   1.000
    F2      F    0.69080   0.49200   0.50000   1.000
    F2      F    0.49200   0.69080   0.00000   1.000
    F2      F    0.50800   0.30920   0.00000   1.000
    F2      F    0.69080   0.50800   0.00000   1.000
    F2      F    0.30920   0.49200   0.00000   1.000
    N1      N    0.84860   0.84860   0.25000   1.000
    N1      N    0.84860   0.15140   0.25000   1.000
    N1      N    0.15140   0.84860   0.25000   1.000
    N1      N    0.84860   0.84860   0.75000   1.000
    N1      N    0.15140   0.15140   0.75000   1.000
    N1      N    0.15140   0.84860   0.75000   1.000
    N1      N    0.84860   0.15140   0.75000   1.000
    N1      N    0.65140   0.65140   0.75000   1.000
    N1      N    0.34860   0.34860   0.75000   1.000
    N1      N    0.34860   0.65140   0.75000   1.000
    N1      N    0.65140   0.34860   0.75000   1.000
    N1      N    0.34860   0.34860   0.25000   1.000
    N1      N    0.65140   0.65140   0.25000   1.000
    N1      N    0.65140   0.34860   0.25000   1.000
    N1      N    0.34860   0.65140   0.25000   1.000
    C1A     C    0.75790   0.83990   0.31200   1.000
    C1A     C    0.83990   0.24210   0.31200   1.000
    C1A     C    0.16010   0.75790   0.31200   1.000
    C1A     C    0.75790   0.16010   0.18800   1.000
    C1A     C    0.24210   0.83990   0.18800   1.000
    C1A     C    0.16010   0.24210   0.18800   1.000
    C1A     C    0.83990   0.75790   0.18800   1.000
    C1A     C    0.75790   0.83990   0.68800   1.000
    C1A     C    0.24210   0.16010   0.68800   1.000
    C1A     C    0.16010   0.75790   0.68800   1.000
    C1A     C    0.83990   0.24210   0.68800   1.000
    C1A     C    0.24210   0.83990   0.81200   1.000
    C1A     C    0.75790   0.16010   0.81200   1.000
    C1A     C    0.83990   0.75790   0.81200   1.000
    C1A     C    0.16010   0.24210   0.81200   1.000
    C1A     C    0.74210   0.66010   0.81200   1.000
    C1A     C    0.25790   0.33990   0.81200   1.000
    C1A     C    0.33990   0.74210   0.81200   1.000
    C1A     C    0.66010   0.25790   0.81200   1.000
    C1A     C    0.25790   0.66010   0.68800   1.000
    C1A     C    0.74210   0.33990   0.68800   1.000
    C1A     C    0.66010   0.74210   0.68800   1.000
    C1A     C    0.33990   0.25790   0.68800   1.000
    C1A     C    0.25790   0.33990   0.18800   1.000
    C1A     C    0.74210   0.66010   0.18800   1.000
    C1A     C    0.66010   0.25790   0.18800   1.000
    C1A     C    0.33990   0.74210   0.18800   1.000
    C1A     C    0.74210   0.33990   0.31200   1.000
    C1A     C    0.25790   0.66010   0.31200   1.000
    C1A     C    0.33990   0.25790   0.31200   1.000
    C1A     C    0.66010   0.74210   0.31200   1.000
    H1A     H    0.76080   0.90150   0.35640   1.000
    H1A     H    0.90150   0.23920   0.35640   1.000
    H1A     H    0.09850   0.76080   0.35640   1.000
    H1A     H    0.76080   0.09850   0.14360   1.000
    H1A     H    0.23920   0.90150   0.14360   1.000
    H1A     H    0.09850   0.23920   0.14360   1.000
    H1A     H    0.90150   0.76080   0.14360   1.000
    H1A     H    0.76080   0.90150   0.64360   1.000
    H1A     H    0.23920   0.09850   0.64360   1.000
    H1A     H    0.09850   0.76080   0.64360   1.000
    H1A     H    0.90150   0.23920   0.64360   1.000
    H1A     H    0.23920   0.90150   0.85640   1.000
    H1A     H    0.76080   0.09850   0.85640   1.000
    H1A     H    0.90150   0.76080   0.85640   1.000
    H1A     H    0.09850   0.23920   0.85640   1.000
    H1A     H    0.73920   0.59850   0.85640   1.000
    H1A     H    0.26080   0.40150   0.85640   1.000
    H1A     H    0.40150   0.73920   0.85640   1.000
    H1A     H    0.59850   0.26080   0.85640   1.000
    H1A     H    0.26080   0.59850   0.64360   1.000
    H1A     H    0.73920   0.40150   0.64360   1.000
    H1A     H    0.59850   0.73920   0.64360   1.000
    H1A     H    0.40150   0.26080   0.64360   1.000
    H1A     H    0.26080   0.40150   0.14360   1.000
    H1A     H    0.73920   0.59850   0.14360   1.000
    H1A     H    0.59850   0.26080   0.14360   1.000
    H1A     H    0.40150   0.73920   0.14360   1.000
    H1A     H    0.73920   0.40150   0.35640   1.000
    H1A     H    0.26080   0.59850   0.35640   1.000
    H1A     H    0.40150   0.26080   0.35640   1.000
    H1A     H    0.59850   0.73920   0.35640   1.000
