# CIF file generated by openbabel 2.4.1, see http://openbabel.sf.net
data_I
_chemical_name_common 'NOTT-300 (In) Desolvated'
_cell_length_a 15.4886
_cell_length_b 15.4886
_cell_length_c 12.3439
_cell_angle_alpha 90
_cell_angle_beta 90
_cell_angle_gamma 90
_space_group_name_H-M_alt 'P 1'
_space_group_name_Hall 'P 1'
loop_
    _symmetry_equiv_pos_as_xyz
    x,y,z
loop_
    _atom_site_label
    _atom_site_type_symbol
    _atom_site_fract_x
    _atom_site_fract_y
    _atom_site_fract_z
    _atom_site_occupancy
    In1     In   0.68711   0.31289   0.00000   1.000
    O2      O    0.61130   0.38240   0.11490   1.000
    C1      C    0.58530   0.36290   0.20930   1.000
    C4      C    0.53620   0.43140   0.38100   1.000
    H4      H    0.55860   0.38430   0.41830   1.000
    C3      C    0.50000   0.50000   0.21210   1.000
    H3      H    0.50000   0.50000   0.13680   1.000
    C2      C    0.53920   0.43280   0.26880   1.000
    C5      C    0.50000   0.50000   0.43880   1.000
    O1      O    0.75470   0.25000   0.12500   1.000
    H1      H    0.81470   0.25000   0.12500   1.000
    O3      O    0.59440   0.29198   0.25560   1.000
    In1     In   0.81289   0.18711   0.50000   1.000
    In1     In   0.68711   0.18711   0.25000   1.000
    In1     In   0.81289   0.31289   0.75000   1.000
    In1     In   0.18711   0.81289   0.50000   1.000
    In1     In   0.31289   0.68711   0.00000   1.000
    In1     In   0.18711   0.68711   0.75000   1.000
    In1     In   0.31289   0.81289   0.25000   1.000
    O2      O    0.88870   0.11760   0.61490   1.000
    O2      O    0.61760   0.11130   0.36490   1.000
    O2      O    0.88240   0.38870   0.86490   1.000
    O2      O    0.88870   0.38240   0.63510   1.000
    O2      O    0.61130   0.11760   0.13510   1.000
    O2      O    0.88240   0.11130   0.38510   1.000
    O2      O    0.61760   0.38870   0.88510   1.000
    O2      O    0.11130   0.88240   0.61490   1.000
    O2      O    0.38870   0.61760   0.11490   1.000
    O2      O    0.11760   0.61130   0.86490   1.000
    O2      O    0.38240   0.88870   0.36490   1.000
    O2      O    0.38870   0.88240   0.13510   1.000
    O2      O    0.11130   0.61760   0.63510   1.000
    O2      O    0.38240   0.61130   0.88510   1.000
    O2      O    0.11760   0.88870   0.38510   1.000
    C1      C    0.91470   0.13710   0.70930   1.000
    C1      C    0.63710   0.08530   0.45930   1.000
    C1      C    0.86290   0.41470   0.95930   1.000
    C1      C    0.91470   0.36290   0.54070   1.000
    C1      C    0.58530   0.13710   0.04070   1.000
    C1      C    0.86290   0.08530   0.29070   1.000
    C1      C    0.63710   0.41470   0.79070   1.000
    C1      C    0.08530   0.86290   0.70930   1.000
    C1      C    0.41470   0.63710   0.20930   1.000
    C1      C    0.13710   0.58530   0.95930   1.000
    C1      C    0.36290   0.91470   0.45930   1.000
    C1      C    0.41470   0.86290   0.04070   1.000
    C1      C    0.08530   0.63710   0.54070   1.000
    C1      C    0.36290   0.58530   0.79070   1.000
    C1      C    0.13710   0.91470   0.29070   1.000
    C4      C    0.96380   0.06860   0.88100   1.000
    C4      C    0.56860   0.03620   0.63100   1.000
    C4      C    0.93140   0.46380   0.13100   1.000
    C4      C    0.96380   0.43140   0.36900   1.000
    C4      C    0.53620   0.06860   0.86900   1.000
    C4      C    0.93140   0.03620   0.11900   1.000
    C4      C    0.56860   0.46380   0.61900   1.000
    C4      C    0.03620   0.93140   0.88100   1.000
    C4      C    0.46380   0.56860   0.38100   1.000
    C4      C    0.06860   0.53620   0.13100   1.000
    C4      C    0.43140   0.96380   0.63100   1.000
    C4      C    0.46380   0.93140   0.86900   1.000
    C4      C    0.03620   0.56860   0.36900   1.000
    C4      C    0.43140   0.53620   0.61900   1.000
    C4      C    0.06860   0.96380   0.11900   1.000
    H4      H    0.94140   0.11570   0.91830   1.000
    H4      H    0.61570   0.05860   0.66830   1.000
    H4      H    0.88430   0.44140   0.16830   1.000
    H4      H    0.94140   0.38430   0.33170   1.000
    H4      H    0.55860   0.11570   0.83170   1.000
    H4      H    0.88430   0.05860   0.08170   1.000
    H4      H    0.61570   0.44140   0.58170   1.000
    H4      H    0.05860   0.88430   0.91830   1.000
    H4      H    0.44140   0.61570   0.41830   1.000
    H4      H    0.11570   0.55860   0.16830   1.000
    H4      H    0.38430   0.94140   0.66830   1.000
    H4      H    0.44140   0.88430   0.83170   1.000
    H4      H    0.05860   0.61570   0.33170   1.000
    H4      H    0.38430   0.55860   0.58170   1.000
    H4      H    0.11570   0.94140   0.08170   1.000
    C3      C    0.00000   0.00000   0.71210   1.000
    C3      C    0.50000   0.00000   0.46210   1.000
    C3      C    0.00000   0.50000   0.96210   1.000
    C3      C    0.00000   0.50000   0.53790   1.000
    C3      C    0.50000   0.00000   0.03790   1.000
    C3      C    0.00000   0.00000   0.28790   1.000
    C3      C    0.50000   0.50000   0.78790   1.000
    H3      H    0.00000   0.00000   0.63680   1.000
    H3      H    0.50000   0.00000   0.38680   1.000
    H3      H    0.00000   0.50000   0.88680   1.000
    H3      H    0.00000   0.50000   0.61320   1.000
    H3      H    0.50000   0.00000   0.11320   1.000
    H3      H    0.00000   0.00000   0.36320   1.000
    H3      H    0.50000   0.50000   0.86320   1.000
    C2      C    0.96080   0.06720   0.76880   1.000
    C2      C    0.56720   0.03920   0.51880   1.000
    C2      C    0.93280   0.46080   0.01880   1.000
    C2      C    0.96080   0.43280   0.48120   1.000
    C2      C    0.53920   0.06720   0.98120   1.000
    C2      C    0.93280   0.03920   0.23120   1.000
    C2      C    0.56720   0.46080   0.73120   1.000
    C2      C    0.03920   0.93280   0.76880   1.000
    C2      C    0.46080   0.56720   0.26880   1.000
    C2      C    0.06720   0.53920   0.01880   1.000
    C2      C    0.43280   0.96080   0.51880   1.000
    C2      C    0.46080   0.93280   0.98120   1.000
    C2      C    0.03920   0.56720   0.48120   1.000
    C2      C    0.43280   0.53920   0.73120   1.000
    C2      C    0.06720   0.96080   0.23120   1.000
    C5      C    0.00000   0.00000   0.93880   1.000
    C5      C    0.50000   0.00000   0.68880   1.000
    C5      C    0.00000   0.50000   0.18880   1.000
    C5      C    0.00000   0.50000   0.31120   1.000
    C5      C    0.50000   0.00000   0.81120   1.000
    C5      C    0.00000   0.00000   0.06120   1.000
    C5      C    0.50000   0.50000   0.56120   1.000
    O1      O    0.74530   0.25000   0.62500   1.000
    O1      O    0.75000   0.25470   0.37500   1.000
    O1      O    0.75000   0.24530   0.87500   1.000
    O1      O    0.25470   0.75000   0.62500   1.000
    O1      O    0.24530   0.75000   0.12500   1.000
    O1      O    0.25000   0.75470   0.87500   1.000
    O1      O    0.25000   0.74530   0.37500   1.000
    H1      H    0.68530   0.25000   0.62500   1.000
    H1      H    0.75000   0.31470   0.37500   1.000
    H1      H    0.75000   0.18530   0.87500   1.000
    H1      H    0.31470   0.75000   0.62500   1.000
    H1      H    0.18530   0.75000   0.12500   1.000
    H1      H    0.25000   0.81470   0.87500   1.000
    H1      H    0.25000   0.68530   0.37500   1.000
    O3      O    0.90560   0.20802   0.75560   1.000
    O3      O    0.70802   0.09440   0.50560   1.000
    O3      O    0.79198   0.40560   0.00560   1.000
    O3      O    0.90560   0.29198   0.49440   1.000
    O3      O    0.59440   0.20802   0.99440   1.000
    O3      O    0.79198   0.09440   0.24440   1.000
    O3      O    0.70802   0.40560   0.74440   1.000
    O3      O    0.09440   0.79198   0.75560   1.000
    O3      O    0.40560   0.70802   0.25560   1.000
    O3      O    0.20802   0.59440   0.00560   1.000
    O3      O    0.29198   0.90560   0.50560   1.000
    O3      O    0.40560   0.79198   0.99440   1.000
    O3      O    0.09440   0.70802   0.49440   1.000
    O3      O    0.29198   0.59440   0.74440   1.000
    O3      O    0.20802   0.90560   0.24440   1.000
