# CIF file generated by openbabel 2.4.1, see http://openbabel.sf.net
data_I
_chemical_name_common '?'
_cell_length_a 19.523
_cell_length_b 28.812
_cell_length_c 27.015
_cell_angle_alpha 90
_cell_angle_beta 94.929
_cell_angle_gamma 90
_space_group_name_H-M_alt 'P 1'
_space_group_name_Hall 'P 1'
loop_
    _symmetry_equiv_pos_as_xyz
    x,y,z
loop_
    _atom_site_label
    _atom_site_type_symbol
    _atom_site_fract_x
    _atom_site_fract_y
    _atom_site_fract_z
    _atom_site_occupancy
    In1     In   0.88636   0.25873   0.11636   1.000
    O1      O    0.98417   0.21934   0.11656   1.000
    O2      O    0.93880   0.24512   0.04473   1.000
    O3      O    0.40460   0.24028   0.69704   1.000
    O4      O    0.29880   0.22360   0.67504   1.000
    O5      O    0.83087   0.18552   0.12121   1.000
    O6      O    0.79181   0.24035   0.06955   1.000
    O7      O    0.35068   0.83008   0.09097   1.000
    O8      O    0.45740   0.82437   0.12012   1.000
    C1      C    0.05050   0.21072   0.04745   1.000
    C2      C    0.05595   0.22080   0.99820   0.373
    H2      H    0.02035   0.23510   0.98040   0.373
    C3      C    0.11535   0.20830   0.97710   0.373
    H3      H    0.11935   0.21345   0.94460   0.373
    C5      C    0.16125   0.17770   0.05210   0.373
    H5      H    0.19460   0.16160   0.06880   0.373
    C6      C    0.10400   0.19025   0.07440   0.373
    H6      H    0.10080   0.18505   0.10755   0.373
    C4      C    0.17020   0.18840   0.00394   1.000
    C7      C    0.33570   0.22060   0.76130   1.000
    C8      C    0.38970   0.22030   0.79787   1.000
    H8A     H    0.43340   0.22830   0.78950   1.000
    C9      C    0.38090   0.20880   0.84574   1.000
    H9A     H    0.41870   0.20810   0.86920   1.000
    C10     C    0.31550   0.19780   0.86014   1.000
    C11     C    0.26070   0.19940   0.82370   1.000
    H11A    H    0.21660   0.19350   0.83270   1.000
    C12     C    0.26950   0.20940   0.77490   1.000
    H12A    H    0.23210   0.20880   0.75110   1.000
    C13     C    0.71950   0.17399   0.07610   1.000
    C14     C    0.70200   0.13670   0.10550   1.000
    H14A    H    0.73250   0.12670   0.13170   1.000
    C15     C    0.63980   0.11470   0.09590   1.000
    H15A    H    0.62860   0.08960   0.11520   1.000
    C16     C    0.59370   0.13028   0.05720   1.000
    C17     C    0.61330   0.16658   0.02805   1.000
    H17A    H    0.58390   0.17580   0.00090   1.000
    C18     C    0.67360   0.18901   0.03764   1.000
    H18A    H    0.68420   0.21440   0.01850   1.000
    C19     C    0.41740   0.89871   0.09050   1.000
    C22     C    0.43680   0.99283   0.06683   1.000
    C20     C    0.36605   0.92535   0.07215   0.370
    H20     H    0.32460   0.91225   0.06780   0.370
    C21     C    0.37680   0.97145   0.06040   0.370
    H21     H    0.34330   0.98860   0.04765   0.370
    C23     C    0.48720   0.96525   0.08485   0.370
    H23     H    0.52900   0.97805   0.08860   0.370
    C24     C    0.47865   0.91850   0.09840   0.370
    H24     H    0.51395   0.90140   0.11235   0.370
    C25     C    0.30700   0.18300   0.91252   1.000
    C26     C    0.35830   0.15880   0.94010   1.000
    H26A    H    0.39990   0.15350   0.92680   1.000
    C27     C    0.34850   0.14194   0.98797   1.000
    C28     C    0.28670   0.15090   0.00760   1.000
    H28A    H    0.27940   0.13930   0.03880   1.000
    C29     C    0.23620   0.17626   0.98227   1.000
    C30     C    0.24630   0.19296   0.93402   1.000
    H30A    H    0.21230   0.21060   0.91670   1.000
    C31     C    0.44750   0.04186   0.05333   1.000
    C32     C    0.39430   0.06907   0.03092   1.000
    H32A    H    0.35020   0.05670   0.02680   1.000
    C33     C    0.40530   0.11363   0.01473   1.000
    C34     C    0.46960   0.13320   0.02347   1.000
    H34A    H    0.47640   0.16360   0.01340   1.000
    C35     C    0.52450   0.10888   0.04683   1.000
    C36     C    0.51210   0.06279   0.06070   1.000
    H36A    H    0.54860   0.04550   0.07540   1.000
    C37     C    0.98790   0.22575   0.07108   1.000
    C38     C    0.34620   0.22790   0.70760   1.000
    C39     C    0.78530   0.20150   0.09050   1.000
    C40     C    0.40870   0.84843   0.10142   1.000
    In1     In   0.11364   0.25873   0.38364   1.000
    In1     In   0.11364   0.74127   0.88364   1.000
    In1     In   0.88636   0.74127   0.61636   1.000
    In1     In   0.38636   0.75873   0.11636   1.000
    In1     In   0.61364   0.75873   0.38364   1.000
    In1     In   0.61364   0.24127   0.88364   1.000
    In1     In   0.38636   0.24127   0.61636   1.000
    O1      O    0.01583   0.21934   0.38344   1.000
    O1      O    0.01583   0.78066   0.88344   1.000
    O1      O    0.98417   0.78066   0.61656   1.000
    O1      O    0.48417   0.71934   0.11656   1.000
    O1      O    0.51583   0.71934   0.38344   1.000
    O1      O    0.51583   0.28066   0.88344   1.000
    O1      O    0.48417   0.28066   0.61656   1.000
    O2      O    0.06120   0.24512   0.45527   1.000
    O2      O    0.06120   0.75488   0.95527   1.000
    O2      O    0.93880   0.75488   0.54473   1.000
    O2      O    0.43880   0.74512   0.04473   1.000
    O2      O    0.56120   0.74512   0.45527   1.000
    O2      O    0.56120   0.25488   0.95527   1.000
    O2      O    0.43880   0.25488   0.54473   1.000
    O3      O    0.59540   0.24028   0.80296   1.000
    O3      O    0.59540   0.75972   0.30296   1.000
    O3      O    0.40460   0.75972   0.19704   1.000
    O3      O    0.90460   0.74028   0.69704   1.000
    O3      O    0.09540   0.74028   0.80296   1.000
    O3      O    0.09540   0.25972   0.30296   1.000
    O3      O    0.90460   0.25972   0.19704   1.000
    O4      O    0.70120   0.22360   0.82496   1.000
    O4      O    0.70120   0.77640   0.32496   1.000
    O4      O    0.29880   0.77640   0.17504   1.000
    O4      O    0.79880   0.72360   0.67504   1.000
    O4      O    0.20120   0.72360   0.82496   1.000
    O4      O    0.20120   0.27640   0.32496   1.000
    O4      O    0.79880   0.27640   0.17504   1.000
    O5      O    0.16913   0.18552   0.37879   1.000
    O5      O    0.16913   0.81448   0.87879   1.000
    O5      O    0.83087   0.81448   0.62121   1.000
    O5      O    0.33087   0.68552   0.12121   1.000
    O5      O    0.66913   0.68552   0.37879   1.000
    O5      O    0.66913   0.31448   0.87879   1.000
    O5      O    0.33087   0.31448   0.62121   1.000
    O6      O    0.20819   0.24035   0.43045   1.000
    O6      O    0.20819   0.75965   0.93045   1.000
    O6      O    0.79181   0.75965   0.56955   1.000
    O6      O    0.29181   0.74035   0.06955   1.000
    O6      O    0.70819   0.74035   0.43045   1.000
    O6      O    0.70819   0.25965   0.93045   1.000
    O6      O    0.29181   0.25965   0.56955   1.000
    O7      O    0.64932   0.83008   0.40903   1.000
    O7      O    0.64932   0.16992   0.90903   1.000
    O7      O    0.35068   0.16992   0.59097   1.000
    O7      O    0.85068   0.33008   0.09097   1.000
    O7      O    0.14932   0.33008   0.40903   1.000
    O7      O    0.14932   0.66992   0.90903   1.000
    O7      O    0.85068   0.66992   0.59097   1.000
    O8      O    0.54260   0.82437   0.37988   1.000
    O8      O    0.54260   0.17563   0.87988   1.000
    O8      O    0.45740   0.17563   0.62012   1.000
    O8      O    0.95740   0.32437   0.12012   1.000
    O8      O    0.04260   0.32437   0.37988   1.000
    O8      O    0.04260   0.67563   0.87988   1.000
    O8      O    0.95740   0.67563   0.62012   1.000
    C1      C    0.94950   0.21072   0.45255   1.000
    C1      C    0.94950   0.78928   0.95255   1.000
    C1      C    0.05050   0.78928   0.54745   1.000
    C1      C    0.55050   0.71072   0.04745   1.000
    C1      C    0.44950   0.71072   0.45255   1.000
    C1      C    0.44950   0.28928   0.95255   1.000
    C1      C    0.55050   0.28928   0.54745   1.000
    C2      C    0.94405   0.22080   0.50180   0.373
    C2      C    0.94405   0.77920   0.00180   0.373
    C2      C    0.05595   0.77920   0.49820   0.373
    C2      C    0.55595   0.72080   0.99820   0.373
    C2      C    0.44405   0.72080   0.50180   0.373
    C2      C    0.44405   0.27920   0.00180   0.373
    C2      C    0.55595   0.27920   0.49820   0.373
    H2      H    0.97965   0.23510   0.51960   0.373
    H2      H    0.97965   0.76490   0.01960   0.373
    H2      H    0.02035   0.76490   0.48040   0.373
    H2      H    0.52035   0.73510   0.98040   0.373
    H2      H    0.47965   0.73510   0.51960   0.373
    H2      H    0.47965   0.26490   0.01960   0.373
    H2      H    0.52035   0.26490   0.48040   0.373
    C3      C    0.88465   0.20830   0.52290   0.373
    C3      C    0.88465   0.79170   0.02290   0.373
    C3      C    0.11535   0.79170   0.47710   0.373
    C3      C    0.61535   0.70830   0.97710   0.373
    C3      C    0.38465   0.70830   0.52290   0.373
    C3      C    0.38465   0.29170   0.02290   0.373
    C3      C    0.61535   0.29170   0.47710   0.373
    H3      H    0.88065   0.21345   0.55540   0.373
    H3      H    0.88065   0.78655   0.05540   0.373
    H3      H    0.11935   0.78655   0.44460   0.373
    H3      H    0.61935   0.71345   0.94460   0.373
    H3      H    0.38065   0.71345   0.55540   0.373
    H3      H    0.38065   0.28655   0.05540   0.373
    H3      H    0.61935   0.28655   0.44460   0.373
    C5      C    0.83875   0.17770   0.44790   0.373
    C5      C    0.83875   0.82230   0.94790   0.373
    C5      C    0.16125   0.82230   0.55210   0.373
    C5      C    0.66125   0.67770   0.05210   0.373
    C5      C    0.33875   0.67770   0.44790   0.373
    C5      C    0.33875   0.32230   0.94790   0.373
    C5      C    0.66125   0.32230   0.55210   0.373
    H5      H    0.80540   0.16160   0.43120   0.373
    H5      H    0.80540   0.83840   0.93120   0.373
    H5      H    0.19460   0.83840   0.56880   0.373
    H5      H    0.69460   0.66160   0.06880   0.373
    H5      H    0.30540   0.66160   0.43120   0.373
    H5      H    0.30540   0.33840   0.93120   0.373
    H5      H    0.69460   0.33840   0.56880   0.373
    C15     C    0.36020   0.11470   0.40410   1.000
    C15     C    0.36020   0.88530   0.90410   1.000
    C15     C    0.63980   0.88530   0.59590   1.000
    C15     C    0.13980   0.61470   0.09590   1.000
    C15     C    0.86020   0.61470   0.40410   1.000
    C15     C    0.86020   0.38530   0.90410   1.000
    C15     C    0.13980   0.38530   0.59590   1.000
    C6      C    0.89600   0.19025   0.42560   0.373
    C6      C    0.89600   0.80975   0.92560   0.373
    C6      C    0.10400   0.80975   0.57440   0.373
    C6      C    0.60400   0.69025   0.07440   0.373
    C6      C    0.39600   0.69025   0.42560   0.373
    C6      C    0.39600   0.30975   0.92560   0.373
    C6      C    0.60400   0.30975   0.57440   0.373
    H6      H    0.89920   0.18505   0.39245   0.373
    H6      H    0.89920   0.81495   0.89245   0.373
    H6      H    0.10080   0.81495   0.60755   0.373
    H6      H    0.60080   0.68505   0.10755   0.373
    H6      H    0.39920   0.68505   0.39245   0.373
    H6      H    0.39920   0.31495   0.89245   0.373
    H6      H    0.60080   0.31495   0.60755   0.373
    C4      C    0.82980   0.18840   0.49606   1.000
    C4      C    0.82980   0.81160   0.99606   1.000
    C4      C    0.17020   0.81160   0.50394   1.000
    C4      C    0.67020   0.68840   0.00394   1.000
    C4      C    0.32980   0.68840   0.49606   1.000
    C4      C    0.32980   0.31160   0.99606   1.000
    C4      C    0.67020   0.31160   0.50394   1.000
    C7      C    0.66430   0.22060   0.73870   1.000
    C7      C    0.66430   0.77940   0.23870   1.000
    C7      C    0.33570   0.77940   0.26130   1.000
    C7      C    0.83570   0.72060   0.76130   1.000
    C7      C    0.16430   0.72060   0.73870   1.000
    C7      C    0.16430   0.27940   0.23870   1.000
    C7      C    0.83570   0.27940   0.26130   1.000
    C8      C    0.61030   0.22030   0.70213   1.000
    C8      C    0.61030   0.77970   0.20213   1.000
    C8      C    0.38970   0.77970   0.29787   1.000
    C8      C    0.88970   0.72030   0.79787   1.000
    C8      C    0.11030   0.72030   0.70213   1.000
    C8      C    0.11030   0.27970   0.20213   1.000
    C8      C    0.88970   0.27970   0.29787   1.000
    H8A     H    0.56660   0.22830   0.71050   1.000
    H8A     H    0.56660   0.77170   0.21050   1.000
    H8A     H    0.43340   0.77170   0.28950   1.000
    H8A     H    0.93340   0.72830   0.78950   1.000
    H8A     H    0.06660   0.72830   0.71050   1.000
    H8A     H    0.06660   0.27170   0.21050   1.000
    H8A     H    0.93340   0.27170   0.28950   1.000
    C9      C    0.61910   0.20880   0.65426   1.000
    C9      C    0.61910   0.79120   0.15426   1.000
    C9      C    0.38090   0.79120   0.34574   1.000
    C9      C    0.88090   0.70880   0.84574   1.000
    C9      C    0.11910   0.70880   0.65426   1.000
    C9      C    0.11910   0.29120   0.15426   1.000
    C9      C    0.88090   0.29120   0.34574   1.000
    H9A     H    0.58130   0.20810   0.63080   1.000
    H9A     H    0.58130   0.79190   0.13080   1.000
    H9A     H    0.41870   0.79190   0.36920   1.000
    H9A     H    0.91870   0.70810   0.86920   1.000
    H9A     H    0.08130   0.70810   0.63080   1.000
    H9A     H    0.08130   0.29190   0.13080   1.000
    H9A     H    0.91870   0.29190   0.36920   1.000
    C10     C    0.68450   0.19780   0.63986   1.000
    C10     C    0.68450   0.80220   0.13986   1.000
    C10     C    0.31550   0.80220   0.36014   1.000
    C10     C    0.81550   0.69780   0.86014   1.000
    C10     C    0.18450   0.69780   0.63986   1.000
    C10     C    0.18450   0.30220   0.13986   1.000
    C10     C    0.81550   0.30220   0.36014   1.000
    C11     C    0.73930   0.19940   0.67630   1.000
    C11     C    0.73930   0.80060   0.17630   1.000
    C11     C    0.26070   0.80060   0.32370   1.000
    C11     C    0.76070   0.69940   0.82370   1.000
    C11     C    0.23930   0.69940   0.67630   1.000
    C11     C    0.23930   0.30060   0.17630   1.000
    C11     C    0.76070   0.30060   0.32370   1.000
    H11A    H    0.78340   0.19350   0.66730   1.000
    H11A    H    0.78340   0.80650   0.16730   1.000
    H11A    H    0.21660   0.80650   0.33270   1.000
    H11A    H    0.71660   0.69350   0.83270   1.000
    H11A    H    0.28340   0.69350   0.66730   1.000
    H11A    H    0.28340   0.30650   0.16730   1.000
    H11A    H    0.71660   0.30650   0.33270   1.000
    C12     C    0.73050   0.20940   0.72510   1.000
    C12     C    0.73050   0.79060   0.22510   1.000
    C12     C    0.26950   0.79060   0.27490   1.000
    C12     C    0.76950   0.70940   0.77490   1.000
    C12     C    0.23050   0.70940   0.72510   1.000
    C12     C    0.23050   0.29060   0.22510   1.000
    C12     C    0.76950   0.29060   0.27490   1.000
    H12A    H    0.76790   0.20880   0.74890   1.000
    H12A    H    0.76790   0.79120   0.24890   1.000
    H12A    H    0.23210   0.79120   0.25110   1.000
    H12A    H    0.73210   0.70880   0.75110   1.000
    H12A    H    0.26790   0.70880   0.74890   1.000
    H12A    H    0.26790   0.29120   0.24890   1.000
    H12A    H    0.73210   0.29120   0.25110   1.000
    C13     C    0.28050   0.17399   0.42390   1.000
    C13     C    0.28050   0.82601   0.92390   1.000
    C13     C    0.71950   0.82601   0.57610   1.000
    C13     C    0.21950   0.67399   0.07610   1.000
    C13     C    0.78050   0.67399   0.42390   1.000
    C13     C    0.78050   0.32601   0.92390   1.000
    C13     C    0.21950   0.32601   0.57610   1.000
    C14     C    0.29800   0.13670   0.39450   1.000
    C14     C    0.29800   0.86330   0.89450   1.000
    C14     C    0.70200   0.86330   0.60550   1.000
    C14     C    0.20200   0.63670   0.10550   1.000
    C14     C    0.79800   0.63670   0.39450   1.000
    C14     C    0.79800   0.36330   0.89450   1.000
    C14     C    0.20200   0.36330   0.60550   1.000
    H14A    H    0.26750   0.12670   0.36830   1.000
    H14A    H    0.26750   0.87330   0.86830   1.000
    H14A    H    0.73250   0.87330   0.63170   1.000
    H14A    H    0.23250   0.62670   0.13170   1.000
    H14A    H    0.76750   0.62670   0.36830   1.000
    H14A    H    0.76750   0.37330   0.86830   1.000
    H14A    H    0.23250   0.37330   0.63170   1.000
    C35     C    0.47550   0.10888   0.45317   1.000
    C35     C    0.47550   0.89112   0.95317   1.000
    C35     C    0.52450   0.89112   0.54683   1.000
    C35     C    0.02450   0.60888   0.04683   1.000
    C35     C    0.97550   0.60888   0.45317   1.000
    C35     C    0.97550   0.39112   0.95317   1.000
    C35     C    0.02450   0.39112   0.54683   1.000
    H15A    H    0.37140   0.08960   0.38480   1.000
    H15A    H    0.37140   0.91040   0.88480   1.000
    H15A    H    0.62860   0.91040   0.61520   1.000
    H15A    H    0.12860   0.58960   0.11520   1.000
    H15A    H    0.87140   0.58960   0.38480   1.000
    H15A    H    0.87140   0.41040   0.88480   1.000
    H15A    H    0.12860   0.41040   0.61520   1.000
    C16     C    0.40630   0.13028   0.44280   1.000
    C16     C    0.40630   0.86972   0.94280   1.000
    C16     C    0.59370   0.86972   0.55720   1.000
    C16     C    0.09370   0.63028   0.05720   1.000
    C16     C    0.90630   0.63028   0.44280   1.000
    C16     C    0.90630   0.36972   0.94280   1.000
    C16     C    0.09370   0.36972   0.55720   1.000
    C17     C    0.38670   0.16658   0.47195   1.000
    C17     C    0.38670   0.83342   0.97195   1.000
    C17     C    0.61330   0.83342   0.52805   1.000
    C17     C    0.11330   0.66658   0.02805   1.000
    C17     C    0.88670   0.66658   0.47195   1.000
    C17     C    0.88670   0.33342   0.97195   1.000
    C17     C    0.11330   0.33342   0.52805   1.000
    H17A    H    0.41610   0.17580   0.49910   1.000
    H17A    H    0.41610   0.82420   0.99910   1.000
    H17A    H    0.58390   0.82420   0.50090   1.000
    H17A    H    0.08390   0.67580   0.00090   1.000
    H17A    H    0.91610   0.67580   0.49910   1.000
    H17A    H    0.91610   0.32420   0.99910   1.000
    H17A    H    0.08390   0.32420   0.50090   1.000
    C18     C    0.32640   0.18901   0.46236   1.000
    C18     C    0.32640   0.81099   0.96236   1.000
    C18     C    0.67360   0.81099   0.53764   1.000
    C18     C    0.17360   0.68901   0.03764   1.000
    C18     C    0.82640   0.68901   0.46236   1.000
    C18     C    0.82640   0.31099   0.96236   1.000
    C18     C    0.17360   0.31099   0.53764   1.000
    H18A    H    0.31580   0.21440   0.48150   1.000
    H18A    H    0.31580   0.78560   0.98150   1.000
    H18A    H    0.68420   0.78560   0.51850   1.000
    H18A    H    0.18420   0.71440   0.01850   1.000
    H18A    H    0.81580   0.71440   0.48150   1.000
    H18A    H    0.81580   0.28560   0.98150   1.000
    H18A    H    0.18420   0.28560   0.51850   1.000
    C19     C    0.58260   0.89871   0.40950   1.000
    C19     C    0.58260   0.10129   0.90950   1.000
    C19     C    0.41740   0.10129   0.59050   1.000
    C19     C    0.91740   0.39871   0.09050   1.000
    C19     C    0.08260   0.39871   0.40950   1.000
    C19     C    0.08260   0.60129   0.90950   1.000
    C19     C    0.91740   0.60129   0.59050   1.000
    C22     C    0.56320   0.99283   0.43317   1.000
    C22     C    0.56320   0.00717   0.93317   1.000
    C22     C    0.43680   0.00717   0.56683   1.000
    C22     C    0.93680   0.49283   0.06683   1.000
    C22     C    0.06320   0.49283   0.43317   1.000
    C22     C    0.06320   0.50717   0.93317   1.000
    C22     C    0.93680   0.50717   0.56683   1.000
    C20     C    0.63395   0.92535   0.42785   0.370
    C20     C    0.63395   0.07465   0.92785   0.370
    C20     C    0.36605   0.07465   0.57215   0.370
    C20     C    0.86605   0.42535   0.07215   0.370
    C20     C    0.13395   0.42535   0.42785   0.370
    C20     C    0.13395   0.57465   0.92785   0.370
    C20     C    0.86605   0.57465   0.57215   0.370
    H20     H    0.67540   0.91225   0.43220   0.370
    H20     H    0.67540   0.08775   0.93220   0.370
    H20     H    0.32460   0.08775   0.56780   0.370
    H20     H    0.82460   0.41225   0.06780   0.370
    H20     H    0.17540   0.41225   0.43220   0.370
    H20     H    0.17540   0.58775   0.93220   0.370
    H20     H    0.82460   0.58775   0.56780   0.370
    C21     C    0.62320   0.97145   0.43960   0.370
    C21     C    0.62320   0.02855   0.93960   0.370
    C21     C    0.37680   0.02855   0.56040   0.370
    C21     C    0.87680   0.47145   0.06040   0.370
    C21     C    0.12320   0.47145   0.43960   0.370
    C21     C    0.12320   0.52855   0.93960   0.370
    C21     C    0.87680   0.52855   0.56040   0.370
    H21     H    0.65670   0.98860   0.45235   0.370
    H21     H    0.65670   0.01140   0.95235   0.370
    H21     H    0.34330   0.01140   0.54765   0.370
    H21     H    0.84330   0.48860   0.04765   0.370
    H21     H    0.15670   0.48860   0.45235   0.370
    H21     H    0.15670   0.51140   0.95235   0.370
    H21     H    0.84330   0.51140   0.54765   0.370
    C23     C    0.51280   0.96525   0.41515   0.370
    C23     C    0.51280   0.03475   0.91515   0.370
    C23     C    0.48720   0.03475   0.58485   0.370
    C23     C    0.98720   0.46525   0.08485   0.370
    C23     C    0.01280   0.46525   0.41515   0.370
    C23     C    0.01280   0.53475   0.91515   0.370
    C23     C    0.98720   0.53475   0.58485   0.370
    H23     H    0.47100   0.97805   0.41140   0.370
    H23     H    0.47100   0.02195   0.91140   0.370
    H23     H    0.52900   0.02195   0.58860   0.370
    H23     H    0.02900   0.47805   0.08860   0.370
    H23     H    0.97100   0.47805   0.41140   0.370
    H23     H    0.97100   0.52195   0.91140   0.370
    H23     H    0.02900   0.52195   0.58860   0.370
    C24     C    0.52135   0.91850   0.40160   0.370
    C24     C    0.52135   0.08150   0.90160   0.370
    C24     C    0.47865   0.08150   0.59840   0.370
    C24     C    0.97865   0.41850   0.09840   0.370
    C24     C    0.02135   0.41850   0.40160   0.370
    C24     C    0.02135   0.58150   0.90160   0.370
    C24     C    0.97865   0.58150   0.59840   0.370
    H24     H    0.48605   0.90140   0.38765   0.370
    H24     H    0.48605   0.09860   0.88765   0.370
    H24     H    0.51395   0.09860   0.61235   0.370
    H24     H    0.01395   0.40140   0.11235   0.370
    H24     H    0.98605   0.40140   0.38765   0.370
    H24     H    0.98605   0.59860   0.88765   0.370
    H24     H    0.01395   0.59860   0.61235   0.370
    C25     C    0.69300   0.18300   0.58748   1.000
    C25     C    0.69300   0.81700   0.08748   1.000
    C25     C    0.30700   0.81700   0.41252   1.000
    C25     C    0.80700   0.68300   0.91252   1.000
    C25     C    0.19300   0.68300   0.58748   1.000
    C25     C    0.19300   0.31700   0.08748   1.000
    C25     C    0.80700   0.31700   0.41252   1.000
    C26     C    0.64170   0.15880   0.55990   1.000
    C26     C    0.64170   0.84120   0.05990   1.000
    C26     C    0.35830   0.84120   0.44010   1.000
    C26     C    0.85830   0.65880   0.94010   1.000
    C26     C    0.14170   0.65880   0.55990   1.000
    C26     C    0.14170   0.34120   0.05990   1.000
    C26     C    0.85830   0.34120   0.44010   1.000
    H26A    H    0.60010   0.15350   0.57320   1.000
    H26A    H    0.60010   0.84650   0.07320   1.000
    H26A    H    0.39990   0.84650   0.42680   1.000
    H26A    H    0.89990   0.65350   0.92680   1.000
    H26A    H    0.10010   0.65350   0.57320   1.000
    H26A    H    0.10010   0.34650   0.07320   1.000
    H26A    H    0.89990   0.34650   0.42680   1.000
    C27     C    0.65150   0.14194   0.51203   1.000
    C27     C    0.65150   0.85806   0.01203   1.000
    C27     C    0.34850   0.85806   0.48797   1.000
    C27     C    0.84850   0.64194   0.98797   1.000
    C27     C    0.15150   0.64194   0.51203   1.000
    C27     C    0.15150   0.35806   0.01203   1.000
    C27     C    0.84850   0.35806   0.48797   1.000
    C28     C    0.71330   0.15090   0.49240   1.000
    C28     C    0.71330   0.84910   0.99240   1.000
    C28     C    0.28670   0.84910   0.50760   1.000
    C28     C    0.78670   0.65090   0.00760   1.000
    C28     C    0.21330   0.65090   0.49240   1.000
    C28     C    0.21330   0.34910   0.99240   1.000
    C28     C    0.78670   0.34910   0.50760   1.000
    H28A    H    0.72060   0.13930   0.46120   1.000
    H28A    H    0.72060   0.86070   0.96120   1.000
    H28A    H    0.27940   0.86070   0.53880   1.000
    H28A    H    0.77940   0.63930   0.03880   1.000
    H28A    H    0.22060   0.63930   0.46120   1.000
    H28A    H    0.22060   0.36070   0.96120   1.000
    H28A    H    0.77940   0.36070   0.53880   1.000
    C29     C    0.76380   0.17626   0.51773   1.000
    C29     C    0.76380   0.82374   0.01773   1.000
    C29     C    0.23620   0.82374   0.48227   1.000
    C29     C    0.73620   0.67626   0.98227   1.000
    C29     C    0.26380   0.67626   0.51773   1.000
    C29     C    0.26380   0.32374   0.01773   1.000
    C29     C    0.73620   0.32374   0.48227   1.000
    C30     C    0.75370   0.19296   0.56598   1.000
    C30     C    0.75370   0.80704   0.06598   1.000
    C30     C    0.24630   0.80704   0.43402   1.000
    C30     C    0.74630   0.69296   0.93402   1.000
    C30     C    0.25370   0.69296   0.56598   1.000
    C30     C    0.25370   0.30704   0.06598   1.000
    C30     C    0.74630   0.30704   0.43402   1.000
    H30A    H    0.78770   0.21060   0.58330   1.000
    H30A    H    0.78770   0.78940   0.08330   1.000
    H30A    H    0.21230   0.78940   0.41670   1.000
    H30A    H    0.71230   0.71060   0.91670   1.000
    H30A    H    0.28770   0.71060   0.58330   1.000
    H30A    H    0.28770   0.28940   0.08330   1.000
    H30A    H    0.71230   0.28940   0.41670   1.000
    C31     C    0.55250   0.04186   0.44667   1.000
    C31     C    0.55250   0.95814   0.94667   1.000
    C31     C    0.44750   0.95814   0.55333   1.000
    C31     C    0.94750   0.54186   0.05333   1.000
    C31     C    0.05250   0.54186   0.44667   1.000
    C31     C    0.05250   0.45814   0.94667   1.000
    C31     C    0.94750   0.45814   0.55333   1.000
    C32     C    0.60570   0.06907   0.46908   1.000
    C32     C    0.60570   0.93093   0.96908   1.000
    C32     C    0.39430   0.93093   0.53092   1.000
    C32     C    0.89430   0.56907   0.03092   1.000
    C32     C    0.10570   0.56907   0.46908   1.000
    C32     C    0.10570   0.43093   0.96908   1.000
    C32     C    0.89430   0.43093   0.53092   1.000
    H32A    H    0.64980   0.05670   0.47320   1.000
    H32A    H    0.64980   0.94330   0.97320   1.000
    H32A    H    0.35020   0.94330   0.52680   1.000
    H32A    H    0.85020   0.55670   0.02680   1.000
    H32A    H    0.14980   0.55670   0.47320   1.000
    H32A    H    0.14980   0.44330   0.97320   1.000
    H32A    H    0.85020   0.44330   0.52680   1.000
    C33     C    0.59470   0.11363   0.48527   1.000
    C33     C    0.59470   0.88637   0.98527   1.000
    C33     C    0.40530   0.88637   0.51473   1.000
    C33     C    0.90530   0.61363   0.01473   1.000
    C33     C    0.09470   0.61363   0.48527   1.000
    C33     C    0.09470   0.38637   0.98527   1.000
    C33     C    0.90530   0.38637   0.51473   1.000
    C34     C    0.53040   0.13320   0.47653   1.000
    C34     C    0.53040   0.86680   0.97653   1.000
    C34     C    0.46960   0.86680   0.52347   1.000
    C34     C    0.96960   0.63320   0.02347   1.000
    C34     C    0.03040   0.63320   0.47653   1.000
    C34     C    0.03040   0.36680   0.97653   1.000
    C34     C    0.96960   0.36680   0.52347   1.000
    H34A    H    0.52360   0.16360   0.48660   1.000
    H34A    H    0.52360   0.83640   0.98660   1.000
    H34A    H    0.47640   0.83640   0.51340   1.000
    H34A    H    0.97640   0.66360   0.01340   1.000
    H34A    H    0.02360   0.66360   0.48660   1.000
    H34A    H    0.02360   0.33640   0.98660   1.000
    H34A    H    0.97640   0.33640   0.51340   1.000
    C36     C    0.48790   0.06279   0.43930   1.000
    C36     C    0.48790   0.93721   0.93930   1.000
    C36     C    0.51210   0.93721   0.56070   1.000
    C36     C    0.01210   0.56279   0.06070   1.000
    C36     C    0.98790   0.56279   0.43930   1.000
    C36     C    0.98790   0.43721   0.93930   1.000
    C36     C    0.01210   0.43721   0.56070   1.000
    H36A    H    0.45140   0.04550   0.42460   1.000
    H36A    H    0.45140   0.95450   0.92460   1.000
    H36A    H    0.54860   0.95450   0.57540   1.000
    H36A    H    0.04860   0.54550   0.07540   1.000
    H36A    H    0.95140   0.54550   0.42460   1.000
    H36A    H    0.95140   0.45450   0.92460   1.000
    H36A    H    0.04860   0.45450   0.57540   1.000
    C37     C    0.01210   0.22575   0.42892   1.000
    C37     C    0.01210   0.77425   0.92892   1.000
    C37     C    0.98790   0.77425   0.57108   1.000
    C37     C    0.48790   0.72575   0.07108   1.000
    C37     C    0.51210   0.72575   0.42892   1.000
    C37     C    0.51210   0.27425   0.92892   1.000
    C37     C    0.48790   0.27425   0.57108   1.000
    C38     C    0.65380   0.22790   0.79240   1.000
    C38     C    0.65380   0.77210   0.29240   1.000
    C38     C    0.34620   0.77210   0.20760   1.000
    C38     C    0.84620   0.72790   0.70760   1.000
    C38     C    0.15380   0.72790   0.79240   1.000
    C38     C    0.15380   0.27210   0.29240   1.000
    C38     C    0.84620   0.27210   0.20760   1.000
    C39     C    0.21470   0.20150   0.40950   1.000
    C39     C    0.21470   0.79850   0.90950   1.000
    C39     C    0.78530   0.79850   0.59050   1.000
    C39     C    0.28530   0.70150   0.09050   1.000
    C39     C    0.71470   0.70150   0.40950   1.000
    C39     C    0.71470   0.29850   0.90950   1.000
    C39     C    0.28530   0.29850   0.59050   1.000
    C40     C    0.59130   0.84843   0.39858   1.000
    C40     C    0.59130   0.15157   0.89858   1.000
    C40     C    0.40870   0.15157   0.60142   1.000
    C40     C    0.90870   0.34843   0.10142   1.000
    C40     C    0.09130   0.34843   0.39858   1.000
    C40     C    0.09130   0.65157   0.89858   1.000
    C40     C    0.90870   0.65157   0.60142   1.000
