# CIF file generated by openbabel 2.3.2, see http://openbabel.sf.net
data_I
_chemical_name_common ''
_cell_length_a 14.8999
_cell_length_b 14.8999
_cell_length_c 19.1362
_cell_angle_alpha 90
_cell_angle_beta 90
_cell_angle_gamma 90
_space_group_name_H-M_alt 'P 1'
_space_group_name_Hall 'P 1'
loop_
    _symmetry_equiv_pos_as_xyz
    'x,y,z'
loop_
    _atom_site_type_symbol
    _atom_site_fract_x
    _atom_site_fract_y
    _atom_site_fract_z
Zn 0.250000 0.250000 0.838650
Zn 0.250000 0.250000 0.685550
 O 0.379960 0.283270 0.705980
 O 0.366260 0.317800 0.819390
 C 0.482720 0.385760 0.755600
 C 0.521070 0.421980 0.815540
 H 0.501900 0.402300 0.860300
 C 0.513200 0.412740 0.690190
 H 0.489400 0.385600 0.649200
 C 0.404000 0.323550 0.760850
 N 0.250000 0.250000 0.945500
 N 0.250000 0.250000 0.079100
Zn 0.750000 0.750000 0.661350
Zn 0.750000 0.750000 0.161350
Zn 0.250000 0.250000 0.338650
Zn 0.750000 0.750000 0.814450
Zn 0.750000 0.750000 0.314450
Zn 0.250000 0.250000 0.185550
 O 0.120040 0.216730 0.705980
 O 0.216730 0.379960 0.705980
 O 0.283270 0.120040 0.705980
 O 0.620040 0.783270 0.794020
 O 0.879960 0.716730 0.794020
 O 0.783270 0.879960 0.794020
 O 0.716730 0.620040 0.794020
 O 0.620040 0.716730 0.294020
 O 0.879960 0.783270 0.294020
 O 0.783270 0.620040 0.294020
 O 0.716730 0.879960 0.294020
 O 0.379960 0.216730 0.205980
 O 0.120040 0.283270 0.205980
 O 0.216730 0.120040 0.205980
 O 0.283270 0.379960 0.205980
 O 0.133740 0.182200 0.819390
 O 0.182200 0.366260 0.819390
 O 0.317800 0.133740 0.819390
 O 0.633740 0.817800 0.680610
 O 0.866260 0.682200 0.680610
 O 0.817800 0.866260 0.680610
 O 0.682200 0.633740 0.680610
 O 0.633740 0.682200 0.180610
 O 0.866260 0.817800 0.180610
 O 0.817800 0.633740 0.180610
 O 0.682200 0.866260 0.180610
 O 0.366260 0.182200 0.319390
 O 0.133740 0.317800 0.319390
 O 0.182200 0.133740 0.319390
 O 0.317800 0.366260 0.319390
 C 0.017280 0.114240 0.755600
 C 0.114240 0.482720 0.755600
 C 0.385760 0.017280 0.755600
 C 0.517280 0.885760 0.744400
 C 0.982720 0.614240 0.744400
 C 0.885760 0.982720 0.744400
 C 0.614240 0.517280 0.744400
 C 0.517280 0.614240 0.244400
 C 0.982720 0.885760 0.244400
 C 0.885760 0.517280 0.244400
 C 0.614240 0.982720 0.244400
 C 0.482720 0.114240 0.255600
 C 0.017280 0.385760 0.255600
 C 0.114240 0.017280 0.255600
 C 0.385760 0.482720 0.255600
 C 0.978930 0.078020 0.815540
 C 0.078020 0.521070 0.815540
 C 0.421980 0.978930 0.815540
 C 0.478930 0.921980 0.684460
 C 0.021070 0.578020 0.684460
 C 0.921980 0.021070 0.684460
 C 0.578020 0.478930 0.684460
 C 0.478930 0.578020 0.184460
 C 0.021070 0.921980 0.184460
 C 0.921980 0.478930 0.184460
 C 0.578020 0.021070 0.184460
 C 0.521070 0.078020 0.315540
 C 0.978930 0.421980 0.315540
 C 0.078020 0.978930 0.315540
 C 0.421980 0.521070 0.315540
 H 0.998100 0.097700 0.860300
 H 0.097700 0.501900 0.860300
 H 0.402300 0.998100 0.860300
 H 0.498100 0.902300 0.639700
 H 0.001900 0.597700 0.639700
 H 0.902300 0.001900 0.639700
 H 0.597700 0.498100 0.639700
 H 0.498100 0.597700 0.139700
 H 0.001900 0.902300 0.139700
 H 0.902300 0.498100 0.139700
 H 0.597700 0.001900 0.139700
 H 0.501900 0.097700 0.360300
 H 0.998100 0.402300 0.360300
 H 0.097700 0.998100 0.360300
 H 0.402300 0.501900 0.360300
 C 0.986800 0.087260 0.690190
 C 0.087260 0.513200 0.690190
 C 0.412740 0.986800 0.690190
 C 0.486800 0.912740 0.809810
 C 0.013200 0.587260 0.809810
 C 0.912740 0.013200 0.809810
 C 0.587260 0.486800 0.809810
 C 0.486800 0.587260 0.309810
 C 0.013200 0.912740 0.309810
 C 0.912740 0.486800 0.309810
 C 0.587260 0.013200 0.309810
 C 0.513200 0.087260 0.190190
 C 0.986800 0.412740 0.190190
 C 0.087260 0.986800 0.190190
 C 0.412740 0.513200 0.190190
 H 0.010600 0.114400 0.649200
 H 0.114400 0.489400 0.649200
 H 0.385600 0.010600 0.649200
 H 0.510600 0.885600 0.850800
 H 0.989400 0.614400 0.850800
 H 0.885600 0.989400 0.850800
 H 0.614400 0.510600 0.850800
 H 0.510600 0.614400 0.350800
 H 0.989400 0.885600 0.350800
 H 0.885600 0.510600 0.350800
 H 0.614400 0.989400 0.350800
 H 0.489400 0.114400 0.149200
 H 0.010600 0.385600 0.149200
 H 0.114400 0.010600 0.149200
 H 0.385600 0.489400 0.149200
 C 0.096000 0.176450 0.760850
 C 0.176450 0.404000 0.760850
 C 0.323550 0.096000 0.760850
 C 0.596000 0.823550 0.739150
 C 0.904000 0.676450 0.739150
 C 0.823550 0.904000 0.739150
 C 0.676450 0.596000 0.739150
 C 0.596000 0.676450 0.239150
 C 0.904000 0.823550 0.239150
 C 0.823550 0.596000 0.239150
 C 0.676450 0.904000 0.239150
 C 0.404000 0.176450 0.260850
 C 0.096000 0.323550 0.260850
 C 0.176450 0.096000 0.260850
 C 0.323550 0.404000 0.260850
 N 0.750000 0.750000 0.554500
 N 0.750000 0.750000 0.054500
 N 0.250000 0.250000 0.445500
 N 0.750000 0.750000 0.420900
 N 0.750000 0.750000 0.920900
 N 0.250000 0.250000 0.579100
 C 0.163400 0.286600 0.971600
 C 0.836600 0.786600 0.528400
 C 0.836600 0.713400 0.028400
 C 0.336600 0.286600 0.471600
 H 0.113200 0.249300 0.954300
 H 0.886800 0.749300 0.545700
 H 0.886800 0.750700 0.045700
 H 0.386800 0.249300 0.454300
 H 0.155000 0.348500 0.954000
 H 0.845000 0.848500 0.546000
 H 0.845000 0.651500 0.046000
 H 0.345000 0.348500 0.454000
 C 0.163600 0.286900 0.050900
 C 0.836400 0.786900 0.449100
 C 0.836400 0.713100 0.949100
 C 0.336400 0.286900 0.550900
 H 0.155200 0.349100 0.068000
 H 0.844800 0.849100 0.432000
 H 0.844800 0.650900 0.932000
 H 0.344800 0.349100 0.568000
 H 0.112800 0.250300 0.068300
 H 0.887200 0.750300 0.431700
 H 0.887200 0.749700 0.931700
 H 0.387200 0.250300 0.568300
 C 0.323400 0.308100 0.973000
 C 0.676600 0.808100 0.527000
 C 0.676600 0.691900 0.027000
 C 0.176600 0.308100 0.473000
 H 0.314600 0.370400 0.956400
 H 0.685400 0.870400 0.543600
 H 0.685400 0.629600 0.043600
 H 0.185400 0.370400 0.456400
 H 0.381900 0.286500 0.955100
 H 0.618100 0.786500 0.544900
 H 0.618100 0.713500 0.044900
 H 0.118100 0.286500 0.455100
 C 0.324300 0.306800 0.052300
 C 0.675700 0.806800 0.447700
 C 0.675700 0.693200 0.947700
 C 0.175700 0.306800 0.552300
 H 0.382400 0.282800 0.069000
 H 0.617600 0.782800 0.431000
 H 0.617600 0.717200 0.931000
 H 0.117600 0.282800 0.569000
 H 0.317600 0.368700 0.070300
 H 0.682400 0.868700 0.429700
 H 0.682400 0.631300 0.929700
 H 0.182400 0.368700 0.570300
 C 0.262400 0.157900 0.972600
 C 0.737600 0.657900 0.527400
 C 0.737600 0.842100 0.027400
 C 0.237600 0.157900 0.472600
 H 0.320800 0.134000 0.956400
 H 0.679200 0.634000 0.543600
 H 0.679200 0.866000 0.043600
 H 0.179200 0.134000 0.456400
 H 0.214400 0.118500 0.954200
 H 0.785600 0.618500 0.545800
 H 0.785600 0.881500 0.045800
 H 0.285600 0.118500 0.454200
 C 0.259800 0.157300 0.051400
 C 0.740200 0.657300 0.448600
 C 0.740200 0.842700 0.948600
 C 0.240200 0.157300 0.551400
 H 0.208800 0.120100 0.067500
 H 0.791200 0.620100 0.432500
 H 0.791200 0.879900 0.932500
 H 0.291200 0.120100 0.567500
 H 0.315800 0.130300 0.069700
 H 0.684200 0.630300 0.430300
 H 0.684200 0.869700 0.930300
 H 0.184200 0.130300 0.569700
