data_COF-105_PM
_symmetry_space_group_name_H-M   'P 1'
_cell_length_a 44.886002
_cell_length_b 44.886002
_cell_length_c 44.886002
_cell_angle_alpha 90.000000
_cell_angle_beta 90.000000
_cell_angle_gamma 90.000000
_symmetry_Int_Tables_number 1

loop_
_symmetry_equiv_pos_as_xyz
 'x, y, z'

loop_
_atom_site_label
_atom_site_fract_x
_atom_site_fract_y
_atom_site_fract_z
_atom_site_charge
C 0.226450 0.217810 0.183350 0.008188
C 0.200180 0.234770 0.191740 0.008179
C 0.234550 0.252610 0.141660 0.184517
C 0.208820 0.267780 0.148730 0.184539
C 0.191370 0.259580 0.173280 -0.100925
C 0.243870 0.227870 0.158260 -0.100985
C 0.352280 0.050350 0.217280 0.029013
C 0.349870 0.032880 0.243480 -0.386107
C 0.327550 0.039780 0.264750 0.029063
C 0.308110 0.064100 0.260080 -0.079630
C 0.310750 0.081800 0.234030 -0.009349
C 0.332940 0.074780 0.212650 -0.080058
H 0.171310 0.272700 0.176800 0.106121
H 0.264640 0.217630 0.151140 0.106097
H 0.368940 0.045220 0.200280 0.059323
H 0.335290 0.088030 0.192280 0.098834
H 0.325180 0.026320 0.284970 0.056100
H 0.291080 0.069040 0.276860 0.098751
B 0.289050 0.109060 0.228770 0.548960
O 0.249230 0.264340 0.116720 -0.507620
O 0.129310 0.202840 0.291490 -0.507889
C 0.726450 0.717810 0.683350 0.008188
C 0.700180 0.734770 0.691740 0.008179
C 0.734550 0.752610 0.641660 0.184517
C 0.708820 0.767780 0.648730 0.184539
C 0.691370 0.759580 0.673280 -0.100925
C 0.743870 0.727870 0.658260 -0.100985
C 0.852280 0.550350 0.717280 0.029013
C 0.849870 0.532880 0.743480 -0.386107
C 0.827550 0.539780 0.764750 0.029063
C 0.808110 0.564100 0.760080 -0.079630
C 0.810750 0.581800 0.734030 -0.009349
C 0.832940 0.574780 0.712650 -0.080058
H 0.671310 0.772700 0.676800 0.106121
H 0.764640 0.717630 0.651140 0.106097
H 0.868940 0.545220 0.700280 0.059323
H 0.835290 0.588030 0.692280 0.098834
H 0.825180 0.526320 0.784970 0.056100
H 0.791080 0.569040 0.776860 0.098751
B 0.789050 0.609060 0.728770 0.548960
O 0.749230 0.764340 0.616720 -0.507620
O 0.629310 0.702840 0.791490 -0.507889
C 0.273550 0.782190 0.683350 0.008188
C 0.299820 0.765230 0.691740 0.008179
C 0.265450 0.747390 0.641660 0.184517
C 0.291180 0.732220 0.648730 0.184539
C 0.308630 0.740420 0.673280 -0.100925
C 0.256130 0.772130 0.658260 -0.100985
C 0.147720 0.949650 0.717280 0.029013
C 0.150130 0.967120 0.743480 -0.386107
C 0.172450 0.960220 0.764750 0.029063
C 0.191890 0.935900 0.760080 -0.079630
C 0.189250 0.918200 0.734030 -0.009349
C 0.167060 0.925220 0.712650 -0.080058
H 0.328690 0.727300 0.676800 0.106121
H 0.235360 0.782370 0.651140 0.106097
H 0.131060 0.954780 0.700280 0.059323
H 0.164710 0.911970 0.692280 0.098834
H 0.174820 0.973680 0.784970 0.056100
H 0.208920 0.930960 0.776860 0.098751
B 0.210950 0.890940 0.728770 0.548960
O 0.250770 0.735660 0.616720 -0.507620
O 0.370690 0.797160 0.791490 -0.507889
C 0.773550 0.282190 0.183350 0.008188
C 0.799820 0.265230 0.191740 0.008179
C 0.765450 0.247390 0.141660 0.184517
C 0.791180 0.232220 0.148730 0.184539
C 0.808630 0.240420 0.173280 -0.100925
C 0.756130 0.272130 0.158260 -0.100985
C 0.647720 0.449650 0.217280 0.029013
C 0.650130 0.467120 0.243480 -0.386107
C 0.672450 0.460220 0.264750 0.029063
C 0.691890 0.435900 0.260080 -0.079630
C 0.689250 0.418200 0.234030 -0.009349
C 0.667060 0.425220 0.212650 -0.080058
H 0.828690 0.227300 0.176800 0.106121
H 0.735360 0.282370 0.151140 0.106097
H 0.631060 0.454780 0.200280 0.059323
H 0.664710 0.411970 0.192280 0.098834
H 0.674820 0.473680 0.284970 0.056100
H 0.708920 0.430960 0.276860 0.098751
B 0.710950 0.390940 0.228770 0.548960
O 0.750770 0.235660 0.116720 -0.507620
O 0.870690 0.297160 0.291490 -0.507889
C 0.773550 0.717810 0.316650 0.008188
C 0.799820 0.734770 0.308260 0.008179
C 0.765450 0.752610 0.358340 0.184517
C 0.791180 0.767780 0.351270 0.184539
C 0.808630 0.759580 0.326720 -0.100925
C 0.756130 0.727870 0.341740 -0.100985
C 0.647720 0.550350 0.282720 0.029013
C 0.650130 0.532880 0.256520 -0.386107
C 0.672450 0.539780 0.235250 0.029063
C 0.691890 0.564100 0.239920 -0.079630
C 0.689250 0.581800 0.265970 -0.009349
C 0.667060 0.574780 0.287350 -0.080058
H 0.828690 0.772700 0.323200 0.106121
H 0.735360 0.717630 0.348860 0.106097
H 0.631060 0.545220 0.299720 0.059323
H 0.664710 0.588030 0.307720 0.098834
H 0.674820 0.526320 0.215030 0.056100
H 0.708920 0.569040 0.223140 0.098751
B 0.710950 0.609060 0.271230 0.548960
O 0.750770 0.764340 0.383280 -0.507620
O 0.870690 0.702840 0.208510 -0.507889
C 0.273550 0.217810 0.816650 0.008188
C 0.299820 0.234770 0.808260 0.008179
C 0.265450 0.252610 0.858340 0.184517
C 0.291180 0.267780 0.851270 0.184539
C 0.308630 0.259580 0.826720 -0.100925
C 0.256130 0.227870 0.841740 -0.100985
C 0.147720 0.050350 0.782720 0.029013
C 0.150130 0.032880 0.756520 -0.386107
C 0.172450 0.039780 0.735250 0.029063
C 0.191890 0.064100 0.739920 -0.079630
C 0.189250 0.081800 0.765970 -0.009349
C 0.167060 0.074780 0.787350 -0.080058
H 0.328690 0.272700 0.823200 0.106121
H 0.235360 0.217630 0.848860 0.106097
H 0.131060 0.045220 0.799720 0.059323
H 0.164710 0.088030 0.807720 0.098834
H 0.174820 0.026320 0.715030 0.056100
H 0.208920 0.069040 0.723140 0.098751
B 0.210950 0.109060 0.771230 0.548960
O 0.250770 0.264340 0.883280 -0.507620
O 0.370690 0.202840 0.708510 -0.507889
C 0.726450 0.282190 0.816650 0.008188
C 0.700180 0.265230 0.808260 0.008179
C 0.734550 0.247390 0.858340 0.184517
C 0.708820 0.232220 0.851270 0.184539
C 0.691370 0.240420 0.826720 -0.100925
C 0.743870 0.272130 0.841740 -0.100985
C 0.852280 0.449650 0.782720 0.029013
C 0.849870 0.467120 0.756520 -0.386107
C 0.827550 0.460220 0.735250 0.029063
C 0.808110 0.435900 0.739920 -0.079630
C 0.810750 0.418200 0.765970 -0.009349
C 0.832940 0.425220 0.787350 -0.080058
H 0.671310 0.227300 0.823200 0.106121
H 0.764640 0.282370 0.848860 0.106097
H 0.868940 0.454780 0.799720 0.059323
H 0.835290 0.411970 0.807720 0.098834
H 0.825180 0.473680 0.715030 0.056100
H 0.791080 0.430960 0.723140 0.098751
B 0.789050 0.390940 0.771230 0.548960
O 0.749230 0.235660 0.883280 -0.507620
O 0.629310 0.297160 0.708510 -0.507889
C 0.226450 0.782190 0.316650 0.008188
C 0.200180 0.765230 0.308260 0.008179
C 0.234550 0.747390 0.358340 0.184517
C 0.208820 0.732220 0.351270 0.184539
C 0.191370 0.740420 0.326720 -0.100925
C 0.243870 0.772130 0.341740 -0.100985
C 0.352280 0.949650 0.282720 0.029013
C 0.349870 0.967120 0.256520 -0.386107
C 0.327550 0.960220 0.235250 0.029063
C 0.308110 0.935900 0.239920 -0.079630
C 0.310750 0.918200 0.265970 -0.009349
C 0.332940 0.925220 0.287350 -0.080058
H 0.171310 0.727300 0.323200 0.106121
H 0.264640 0.782370 0.348860 0.106097
H 0.368940 0.954780 0.299720 0.059323
H 0.335290 0.911970 0.307720 0.098834
H 0.325180 0.973680 0.215030 0.056100
H 0.291080 0.930960 0.223140 0.098751
B 0.289050 0.890940 0.271230 0.548960
O 0.249230 0.735660 0.383280 -0.507620
O 0.129310 0.797160 0.208510 -0.507889
C 0.183350 0.226450 0.217810 0.008188
C 0.191740 0.200180 0.234770 0.008179
C 0.141660 0.234550 0.252610 0.184517
C 0.148730 0.208820 0.267780 0.184539
C 0.173280 0.191370 0.259580 -0.100925
C 0.158260 0.243870 0.227870 -0.100985
C 0.217280 0.352280 0.050350 0.029013
C 0.243480 0.349870 0.032880 -0.386107
C 0.264750 0.327550 0.039780 0.029063
C 0.260080 0.308110 0.064100 -0.079630
C 0.234030 0.310750 0.081800 -0.009349
C 0.212650 0.332940 0.074780 -0.080058
H 0.176800 0.171310 0.272700 0.106121
H 0.151140 0.264640 0.217630 0.106097
H 0.200280 0.368940 0.045220 0.059323
H 0.192280 0.335290 0.088030 0.098834
H 0.284970 0.325180 0.026320 0.056100
H 0.276860 0.291080 0.069040 0.098751
B 0.228770 0.289050 0.109060 0.548960
O 0.116720 0.249230 0.264340 -0.507620
O 0.291490 0.129310 0.202840 -0.507889
C 0.683350 0.726450 0.717810 0.008188
C 0.691740 0.700180 0.734770 0.008179
C 0.641660 0.734550 0.752610 0.184517
C 0.648730 0.708820 0.767780 0.184539
C 0.673280 0.691370 0.759580 -0.100925
C 0.658260 0.743870 0.727870 -0.100985
C 0.717280 0.852280 0.550350 0.029013
C 0.743480 0.849870 0.532880 -0.386107
C 0.764750 0.827550 0.539780 0.029063
C 0.760080 0.808110 0.564100 -0.079630
C 0.734030 0.810750 0.581800 -0.009349
C 0.712650 0.832940 0.574780 -0.080058
H 0.676800 0.671310 0.772700 0.106121
H 0.651140 0.764640 0.717630 0.106097
H 0.700280 0.868940 0.545220 0.059323
H 0.692280 0.835290 0.588030 0.098834
H 0.784970 0.825180 0.526320 0.056100
H 0.776860 0.791080 0.569040 0.098751
B 0.728770 0.789050 0.609060 0.548960
O 0.616720 0.749230 0.764340 -0.507620
O 0.791490 0.629310 0.702840 -0.507889
C 0.683350 0.273550 0.782190 0.008188
C 0.691740 0.299820 0.765230 0.008179
C 0.641660 0.265450 0.747390 0.184517
C 0.648730 0.291180 0.732220 0.184539
C 0.673280 0.308630 0.740420 -0.100925
C 0.658260 0.256130 0.772130 -0.100985
C 0.717280 0.147720 0.949650 0.029013
C 0.743480 0.150130 0.967120 -0.386107
C 0.764750 0.172450 0.960220 0.029063
C 0.760080 0.191890 0.935900 -0.079630
C 0.734030 0.189250 0.918200 -0.009349
C 0.712650 0.167060 0.925220 -0.080058
H 0.676800 0.328690 0.727300 0.106121
H 0.651140 0.235360 0.782370 0.106097
H 0.700280 0.131060 0.954780 0.059323
H 0.692280 0.164710 0.911970 0.098834
H 0.784970 0.174820 0.973680 0.056100
H 0.776860 0.208920 0.930960 0.098751
B 0.728770 0.210950 0.890940 0.548960
O 0.616720 0.250770 0.735660 -0.507620
O 0.791490 0.370690 0.797160 -0.507889
C 0.183350 0.773550 0.282190 0.008188
C 0.191740 0.799820 0.265230 0.008179
C 0.141660 0.765450 0.247390 0.184517
C 0.148730 0.791180 0.232220 0.184539
C 0.173280 0.808630 0.240420 -0.100925
C 0.158260 0.756130 0.272130 -0.100985
C 0.217280 0.647720 0.449650 0.029013
C 0.243480 0.650130 0.467120 -0.386107
C 0.264750 0.672450 0.460220 0.029063
C 0.260080 0.691890 0.435900 -0.079630
C 0.234030 0.689250 0.418200 -0.009349
C 0.212650 0.667060 0.425220 -0.080058
H 0.176800 0.828690 0.227300 0.106121
H 0.151140 0.735360 0.282370 0.106097
H 0.200280 0.631060 0.454780 0.059323
H 0.192280 0.664710 0.411970 0.098834
H 0.284970 0.674820 0.473680 0.056100
H 0.276860 0.708920 0.430960 0.098751
B 0.228770 0.710950 0.390940 0.548960
O 0.116720 0.750770 0.235660 -0.507620
O 0.291490 0.870690 0.297160 -0.507889
C 0.316650 0.773550 0.717810 0.008188
C 0.308260 0.799820 0.734770 0.008179
C 0.358340 0.765450 0.752610 0.184517
C 0.351270 0.791180 0.767780 0.184539
C 0.326720 0.808630 0.759580 -0.100925
C 0.341740 0.756130 0.727870 -0.100985
C 0.282720 0.647720 0.550350 0.029013
C 0.256520 0.650130 0.532880 -0.386107
C 0.235250 0.672450 0.539780 0.029063
C 0.239920 0.691890 0.564100 -0.079630
C 0.265970 0.689250 0.581800 -0.009349
C 0.287350 0.667060 0.574780 -0.080058
H 0.323200 0.828690 0.772700 0.106121
H 0.348860 0.735360 0.717630 0.106097
H 0.299720 0.631060 0.545220 0.059323
H 0.307720 0.664710 0.588030 0.098834
H 0.215030 0.674820 0.526320 0.056100
H 0.223140 0.708920 0.569040 0.098751
B 0.271230 0.710950 0.609060 0.548960
O 0.383280 0.750770 0.764340 -0.507620
O 0.208510 0.870690 0.702840 -0.507889
C 0.816650 0.273550 0.217810 0.008188
C 0.808260 0.299820 0.234770 0.008179
C 0.858340 0.265450 0.252610 0.184517
C 0.851270 0.291180 0.267780 0.184539
C 0.826720 0.308630 0.259580 -0.100925
C 0.841740 0.256130 0.227870 -0.100985
C 0.782720 0.147720 0.050350 0.029013
C 0.756520 0.150130 0.032880 -0.386107
C 0.735250 0.172450 0.039780 0.029063
C 0.739920 0.191890 0.064100 -0.079630
C 0.765970 0.189250 0.081800 -0.009349
C 0.787350 0.167060 0.074780 -0.080058
H 0.823200 0.328690 0.272700 0.106121
H 0.848860 0.235360 0.217630 0.106097
H 0.799720 0.131060 0.045220 0.059323
H 0.807720 0.164710 0.088030 0.098834
H 0.715030 0.174820 0.026320 0.056100
H 0.723140 0.208920 0.069040 0.098751
B 0.771230 0.210950 0.109060 0.548960
O 0.883280 0.250770 0.264340 -0.507620
O 0.708510 0.370690 0.202840 -0.507889
C 0.816650 0.726450 0.282190 0.008188
C 0.808260 0.700180 0.265230 0.008179
C 0.858340 0.734550 0.247390 0.184517
C 0.851270 0.708820 0.232220 0.184539
C 0.826720 0.691370 0.240420 -0.100925
C 0.841740 0.743870 0.272130 -0.100985
C 0.782720 0.852280 0.449650 0.029013
C 0.756520 0.849870 0.467120 -0.386107
C 0.735250 0.827550 0.460220 0.029063
C 0.739920 0.808110 0.435900 -0.079630
C 0.765970 0.810750 0.418200 -0.009349
C 0.787350 0.832940 0.425220 -0.080058
H 0.823200 0.671310 0.227300 0.106121
H 0.848860 0.764640 0.282370 0.106097
H 0.799720 0.868940 0.454780 0.059323
H 0.807720 0.835290 0.411970 0.098834
H 0.715030 0.825180 0.473680 0.056100
H 0.723140 0.791080 0.430960 0.098751
B 0.771230 0.789050 0.390940 0.548960
O 0.883280 0.749230 0.235660 -0.507620
O 0.708510 0.629310 0.297160 -0.507889
C 0.316650 0.226450 0.782190 0.008188
C 0.308260 0.200180 0.765230 0.008179
C 0.358340 0.234550 0.747390 0.184517
C 0.351270 0.208820 0.732220 0.184539
C 0.326720 0.191370 0.740420 -0.100925
C 0.341740 0.243870 0.772130 -0.100985
C 0.282720 0.352280 0.949650 0.029013
C 0.256520 0.349870 0.967120 -0.386107
C 0.235250 0.327550 0.960220 0.029063
C 0.239920 0.308110 0.935900 -0.079630
C 0.265970 0.310750 0.918200 -0.009349
C 0.287350 0.332940 0.925220 -0.080058
H 0.323200 0.171310 0.727300 0.106121
H 0.348860 0.264640 0.782370 0.106097
H 0.299720 0.368940 0.954780 0.059323
H 0.307720 0.335290 0.911970 0.098834
H 0.215030 0.325180 0.973680 0.056100
H 0.223140 0.291080 0.930960 0.098751
B 0.271230 0.289050 0.890940 0.548960
O 0.383280 0.249230 0.735660 -0.507620
O 0.208510 0.129310 0.797160 -0.507889
C 0.217810 0.183350 0.226450 0.008188
C 0.234770 0.191740 0.200180 0.008179
C 0.252610 0.141660 0.234550 0.184517
C 0.267780 0.148730 0.208820 0.184539
C 0.259580 0.173280 0.191370 -0.100925
C 0.227870 0.158260 0.243870 -0.100985
C 0.050350 0.217280 0.352280 0.029013
C 0.032880 0.243480 0.349870 -0.386107
C 0.039780 0.264750 0.327550 0.029063
C 0.064100 0.260080 0.308110 -0.079630
C 0.081800 0.234030 0.310750 -0.009349
C 0.074780 0.212650 0.332940 -0.080058
H 0.272700 0.176800 0.171310 0.106121
H 0.217630 0.151140 0.264640 0.106097
H 0.045220 0.200280 0.368940 0.059323
H 0.088030 0.192280 0.335290 0.098834
H 0.026320 0.284970 0.325180 0.056100
H 0.069040 0.276860 0.291080 0.098751
B 0.109060 0.228770 0.289050 0.548960
O 0.264340 0.116720 0.249230 -0.507620
O 0.202840 0.291490 0.129310 -0.507889
C 0.717810 0.683350 0.726450 0.008188
C 0.734770 0.691740 0.700180 0.008179
C 0.752610 0.641660 0.734550 0.184517
C 0.767780 0.648730 0.708820 0.184539
C 0.759580 0.673280 0.691370 -0.100925
C 0.727870 0.658260 0.743870 -0.100985
C 0.550350 0.717280 0.852280 0.029013
C 0.532880 0.743480 0.849870 -0.386107
C 0.539780 0.764750 0.827550 0.029063
C 0.564100 0.760080 0.808110 -0.079630
C 0.581800 0.734030 0.810750 -0.009349
C 0.574780 0.712650 0.832940 -0.080058
H 0.772700 0.676800 0.671310 0.106121
H 0.717630 0.651140 0.764640 0.106097
H 0.545220 0.700280 0.868940 0.059323
H 0.588030 0.692280 0.835290 0.098834
H 0.526320 0.784970 0.825180 0.056100
H 0.569040 0.776860 0.791080 0.098751
B 0.609060 0.728770 0.789050 0.548960
O 0.764340 0.616720 0.749230 -0.507620
O 0.702840 0.791490 0.629310 -0.507889
C 0.782190 0.683350 0.273550 0.008188
C 0.765230 0.691740 0.299820 0.008179
C 0.747390 0.641660 0.265450 0.184517
C 0.732220 0.648730 0.291180 0.184539
C 0.740420 0.673280 0.308630 -0.100925
C 0.772130 0.658260 0.256130 -0.100985
C 0.949650 0.717280 0.147720 0.029013
C 0.967120 0.743480 0.150130 -0.386107
C 0.960220 0.764750 0.172450 0.029063
C 0.935900 0.760080 0.191890 -0.079630
C 0.918200 0.734030 0.189250 -0.009349
C 0.925220 0.712650 0.167060 -0.080058
H 0.727300 0.676800 0.328690 0.106121
H 0.782370 0.651140 0.235360 0.106097
H 0.954780 0.700280 0.131060 0.059323
H 0.911970 0.692280 0.164710 0.098834
H 0.973680 0.784970 0.174820 0.056100
H 0.930960 0.776860 0.208920 0.098751
B 0.890940 0.728770 0.210950 0.548960
O 0.735660 0.616720 0.250770 -0.507620
O 0.797160 0.791490 0.370690 -0.507889
C 0.282190 0.183350 0.773550 0.008188
C 0.265230 0.191740 0.799820 0.008179
C 0.247390 0.141660 0.765450 0.184517
C 0.232220 0.148730 0.791180 0.184539
C 0.240420 0.173280 0.808630 -0.100925
C 0.272130 0.158260 0.756130 -0.100985
C 0.449650 0.217280 0.647720 0.029013
C 0.467120 0.243480 0.650130 -0.386107
C 0.460220 0.264750 0.672450 0.029063
C 0.435900 0.260080 0.691890 -0.079630
C 0.418200 0.234030 0.689250 -0.009349
C 0.425220 0.212650 0.667060 -0.080058
H 0.227300 0.176800 0.828690 0.106121
H 0.282370 0.151140 0.735360 0.106097
H 0.454780 0.200280 0.631060 0.059323
H 0.411970 0.192280 0.664710 0.098834
H 0.473680 0.284970 0.674820 0.056100
H 0.430960 0.276860 0.708920 0.098751
B 0.390940 0.228770 0.710950 0.548960
O 0.235660 0.116720 0.750770 -0.507620
O 0.297160 0.291490 0.870690 -0.507889
C 0.717810 0.316650 0.773550 0.008188
C 0.734770 0.308260 0.799820 0.008179
C 0.752610 0.358340 0.765450 0.184517
C 0.767780 0.351270 0.791180 0.184539
C 0.759580 0.326720 0.808630 -0.100925
C 0.727870 0.341740 0.756130 -0.100985
C 0.550350 0.282720 0.647720 0.029013
C 0.532880 0.256520 0.650130 -0.386107
C 0.539780 0.235250 0.672450 0.029063
C 0.564100 0.239920 0.691890 -0.079630
C 0.581800 0.265970 0.689250 -0.009349
C 0.574780 0.287350 0.667060 -0.080058
H 0.772700 0.323200 0.828690 0.106121
H 0.717630 0.348860 0.735360 0.106097
H 0.545220 0.299720 0.631060 0.059323
H 0.588030 0.307720 0.664710 0.098834
H 0.526320 0.215030 0.674820 0.056100
H 0.569040 0.223140 0.708920 0.098751
B 0.609060 0.271230 0.710950 0.548960
O 0.764340 0.383280 0.750770 -0.507620
O 0.702840 0.208510 0.870690 -0.507889
C 0.217810 0.816650 0.273550 0.008188
C 0.234770 0.808260 0.299820 0.008179
C 0.252610 0.858340 0.265450 0.184517
C 0.267780 0.851270 0.291180 0.184539
C 0.259580 0.826720 0.308630 -0.100925
C 0.227870 0.841740 0.256130 -0.100985
C 0.050350 0.782720 0.147720 0.029013
C 0.032880 0.756520 0.150130 -0.386107
C 0.039780 0.735250 0.172450 0.029063
C 0.064100 0.739920 0.191890 -0.079630
C 0.081800 0.765970 0.189250 -0.009349
C 0.074780 0.787350 0.167060 -0.080058
H 0.272700 0.823200 0.328690 0.106121
H 0.217630 0.848860 0.235360 0.106097
H 0.045220 0.799720 0.131060 0.059323
H 0.088030 0.807720 0.164710 0.098834
H 0.026320 0.715030 0.174820 0.056100
H 0.069040 0.723140 0.208920 0.098751
B 0.109060 0.771230 0.210950 0.548960
O 0.264340 0.883280 0.250770 -0.507620
O 0.202840 0.708510 0.370690 -0.507889
C 0.282190 0.816650 0.726450 0.008188
C 0.265230 0.808260 0.700180 0.008179
C 0.247390 0.858340 0.734550 0.184517
C 0.232220 0.851270 0.708820 0.184539
C 0.240420 0.826720 0.691370 -0.100925
C 0.272130 0.841740 0.743870 -0.100985
C 0.449650 0.782720 0.852280 0.029013
C 0.467120 0.756520 0.849870 -0.386107
C 0.460220 0.735250 0.827550 0.029063
C 0.435900 0.739920 0.808110 -0.079630
C 0.418200 0.765970 0.810750 -0.009349
C 0.425220 0.787350 0.832940 -0.080058
H 0.227300 0.823200 0.671310 0.106121
H 0.282370 0.848860 0.764640 0.106097
H 0.454780 0.799720 0.868940 0.059323
H 0.411970 0.807720 0.835290 0.098834
H 0.473680 0.715030 0.825180 0.056100
H 0.430960 0.723140 0.791080 0.098751
B 0.390940 0.771230 0.789050 0.548960
O 0.235660 0.883280 0.749230 -0.507620
O 0.297160 0.708510 0.629310 -0.507889
C 0.782190 0.316650 0.226450 0.008188
C 0.765230 0.308260 0.200180 0.008179
C 0.747390 0.358340 0.234550 0.184517
C 0.732220 0.351270 0.208820 0.184539
C 0.740420 0.326720 0.191370 -0.100925
C 0.772130 0.341740 0.243870 -0.100985
C 0.949650 0.282720 0.352280 0.029013
C 0.967120 0.256520 0.349870 -0.386107
C 0.960220 0.235250 0.327550 0.029063
C 0.935900 0.239920 0.308110 -0.079630
C 0.918200 0.265970 0.310750 -0.009349
C 0.925220 0.287350 0.332940 -0.080058
H 0.727300 0.323200 0.171310 0.106121
H 0.782370 0.348860 0.264640 0.106097
H 0.954780 0.299720 0.368940 0.059323
H 0.911970 0.307720 0.335290 0.098834
H 0.973680 0.215030 0.325180 0.056100
H 0.930960 0.223140 0.291080 0.098751
B 0.890940 0.271230 0.289050 0.548960
O 0.735660 0.383280 0.249230 -0.507620
O 0.797160 0.208510 0.129310 -0.507889
C 0.467810 0.476450 0.433350 0.008188
C 0.484770 0.450180 0.441740 0.008179
C 0.502610 0.484550 0.391660 0.184517
C 0.517780 0.458820 0.398730 0.184539
C 0.509580 0.441370 0.423280 -0.100925
C 0.477870 0.493870 0.408260 -0.100985
C 0.300350 0.602280 0.467280 0.029013
C 0.282880 0.599870 0.493480 -0.386107
C 0.289780 0.577550 0.514750 0.029063
C 0.314100 0.558110 0.510080 -0.079630
C 0.331800 0.560750 0.484030 -0.009349
C 0.324780 0.582940 0.462650 -0.080058
H 0.522700 0.421310 0.426800 0.106121
H 0.467630 0.514640 0.401140 0.106097
H 0.295220 0.618940 0.450280 0.059323
H 0.338030 0.585290 0.442280 0.098834
H 0.276320 0.575180 0.534970 0.056100
H 0.319040 0.541080 0.526860 0.098751
B 0.359060 0.539050 0.478770 0.548960
O 0.514340 0.499230 0.366720 -0.507620
O 0.452840 0.379310 0.541490 -0.507889
C 0.967810 0.976450 0.933350 0.008188
C 0.984770 0.950180 0.941740 0.008179
C 0.002610 0.984550 0.891660 0.184517
C 0.017780 0.958820 0.898730 0.184539
C 0.009580 0.941370 0.923280 -0.100925
C 0.977870 0.993870 0.908260 -0.100985
C 0.800350 0.102280 0.967280 0.029013
C 0.782880 0.099870 0.993480 -0.386107
C 0.789780 0.077550 0.014750 0.029063
C 0.814100 0.058110 0.010080 -0.079630
C 0.831800 0.060750 0.984030 -0.009349
C 0.824780 0.082940 0.962650 -0.080058
H 0.022700 0.921310 0.926800 0.106121
H 0.967630 0.014640 0.901140 0.106097
H 0.795220 0.118940 0.950280 0.059323
H 0.838030 0.085290 0.942280 0.098834
H 0.776320 0.075180 0.034970 0.056100
H 0.819040 0.041080 0.026860 0.098751
B 0.859060 0.039050 0.978770 0.548960
O 0.014340 0.999230 0.866720 -0.507620
O 0.952840 0.879310 0.041490 -0.507889
C 0.032190 0.523550 0.933350 0.008188
C 0.015230 0.549820 0.941740 0.008179
C 0.997390 0.515450 0.891660 0.184517
C 0.982220 0.541180 0.898730 0.184539
C 0.990420 0.558630 0.923280 -0.100925
C 0.022130 0.506130 0.908260 -0.100985
C 0.199650 0.397720 0.967280 0.029013
C 0.217120 0.400130 0.993480 -0.386107
C 0.210220 0.422450 0.014750 0.029063
C 0.185900 0.441890 0.010080 -0.079630
C 0.168200 0.439250 0.984030 -0.009349
C 0.175220 0.417060 0.962650 -0.080058
H 0.977300 0.578690 0.926800 0.106121
H 0.032370 0.485360 0.901140 0.106097
H 0.204780 0.381060 0.950280 0.059323
H 0.161970 0.414710 0.942280 0.098834
H 0.223680 0.424820 0.034970 0.056100
H 0.180960 0.458920 0.026860 0.098751
B 0.140940 0.460950 0.978770 0.548960
O 0.985660 0.500770 0.866720 -0.507620
O 0.047160 0.620690 0.041490 -0.507889
C 0.532190 0.023550 0.433350 0.008188
C 0.515230 0.049820 0.441740 0.008179
C 0.497390 0.015450 0.391660 0.184517
C 0.482220 0.041180 0.398730 0.184539
C 0.490420 0.058630 0.423280 -0.100925
C 0.522130 0.006130 0.408260 -0.100985
C 0.699650 0.897720 0.467280 0.029013
C 0.717120 0.900130 0.493480 -0.386107
C 0.710220 0.922450 0.514750 0.029063
C 0.685900 0.941890 0.510080 -0.079630
C 0.668200 0.939250 0.484030 -0.009349
C 0.675220 0.917060 0.462650 -0.080058
H 0.477300 0.078690 0.426800 0.106121
H 0.532370 0.985360 0.401140 0.106097
H 0.704780 0.881060 0.450280 0.059323
H 0.661970 0.914710 0.442280 0.098834
H 0.723680 0.924820 0.534970 0.056100
H 0.680960 0.958920 0.526860 0.098751
B 0.640940 0.960950 0.478770 0.548960
O 0.485660 0.000770 0.366720 -0.507620
O 0.547160 0.120690 0.541490 -0.507889
C 0.967810 0.023550 0.566650 0.008188
C 0.984770 0.049820 0.558260 0.008179
C 0.002610 0.015450 0.608340 0.184517
C 0.017780 0.041180 0.601270 0.184539
C 0.009580 0.058630 0.576720 -0.100925
C 0.977870 0.006130 0.591740 -0.100985
C 0.800350 0.897720 0.532720 0.029013
C 0.782880 0.900130 0.506520 -0.386107
C 0.789780 0.922450 0.485250 0.029063
C 0.814100 0.941890 0.489920 -0.079630
C 0.831800 0.939250 0.515970 -0.009349
C 0.824780 0.917060 0.537350 -0.080058
H 0.022700 0.078690 0.573200 0.106121
H 0.967630 0.985360 0.598860 0.106097
H 0.795220 0.881060 0.549720 0.059323
H 0.838030 0.914710 0.557720 0.098834
H 0.776320 0.924820 0.465030 0.056100
H 0.819040 0.958920 0.473140 0.098751
B 0.859060 0.960950 0.521230 0.548960
O 0.014340 0.000770 0.633280 -0.507620
O 0.952840 0.120690 0.458510 -0.507889
C 0.467810 0.523550 0.066650 0.008188
C 0.484770 0.549820 0.058260 0.008179
C 0.502610 0.515450 0.108340 0.184517
C 0.517780 0.541180 0.101270 0.184539
C 0.509580 0.558630 0.076720 -0.100925
C 0.477870 0.506130 0.091740 -0.100985
C 0.300350 0.397720 0.032720 0.029013
C 0.282880 0.400130 0.006520 -0.386107
C 0.289780 0.422450 0.985250 0.029063
C 0.314100 0.441890 0.989920 -0.079630
C 0.331800 0.439250 0.015970 -0.009349
C 0.324780 0.417060 0.037350 -0.080058
H 0.522700 0.578690 0.073200 0.106121
H 0.467630 0.485360 0.098860 0.106097
H 0.295220 0.381060 0.049720 0.059323
H 0.338030 0.414710 0.057720 0.098834
H 0.276320 0.424820 0.965030 0.056100
H 0.319040 0.458920 0.973140 0.098751
B 0.359060 0.460950 0.021230 0.548960
O 0.514340 0.500770 0.133280 -0.507620
O 0.452840 0.620690 0.958510 -0.507889
C 0.532190 0.976450 0.066650 0.008188
C 0.515230 0.950180 0.058260 0.008179
C 0.497390 0.984550 0.108340 0.184517
C 0.482220 0.958820 0.101270 0.184539
C 0.490420 0.941370 0.076720 -0.100925
C 0.522130 0.993870 0.091740 -0.100985
C 0.699650 0.102280 0.032720 0.029013
C 0.717120 0.099870 0.006520 -0.386107
C 0.710220 0.077550 0.985250 0.029063
C 0.685900 0.058110 0.989920 -0.079630
C 0.668200 0.060750 0.015970 -0.009349
C 0.675220 0.082940 0.037350 -0.080058
H 0.477300 0.921310 0.073200 0.106121
H 0.532370 0.014640 0.098860 0.106097
H 0.704780 0.118940 0.049720 0.059323
H 0.661970 0.085290 0.057720 0.098834
H 0.723680 0.075180 0.965030 0.056100
H 0.680960 0.041080 0.973140 0.098751
B 0.640940 0.039050 0.021230 0.548960
O 0.485660 0.999230 0.133280 -0.507620
O 0.547160 0.879310 0.958510 -0.507889
C 0.032190 0.476450 0.566650 0.008188
C 0.015230 0.450180 0.558260 0.008179
C 0.997390 0.484550 0.608340 0.184517
C 0.982220 0.458820 0.601270 0.184539
C 0.990420 0.441370 0.576720 -0.100925
C 0.022130 0.493870 0.591740 -0.100985
C 0.199650 0.602280 0.532720 0.029013
C 0.217120 0.599870 0.506520 -0.386107
C 0.210220 0.577550 0.485250 0.029063
C 0.185900 0.558110 0.489920 -0.079630
C 0.168200 0.560750 0.515970 -0.009349
C 0.175220 0.582940 0.537350 -0.080058
H 0.977300 0.421310 0.573200 0.106121
H 0.032370 0.514640 0.598860 0.106097
H 0.204780 0.618940 0.549720 0.059323
H 0.161970 0.585290 0.557720 0.098834
H 0.223680 0.575180 0.465030 0.056100
H 0.180960 0.541080 0.473140 0.098751
B 0.140940 0.539050 0.521230 0.548960
O 0.985660 0.499230 0.633280 -0.507620
O 0.047160 0.379310 0.458510 -0.507889
C 0.476450 0.433350 0.467810 0.008188
C 0.450180 0.441740 0.484770 0.008179
C 0.484550 0.391660 0.502610 0.184517
C 0.458820 0.398730 0.517780 0.184539
C 0.441370 0.423280 0.509580 -0.100925
C 0.493870 0.408260 0.477870 -0.100985
C 0.602280 0.467280 0.300350 0.029013
C 0.599870 0.493480 0.282880 -0.386107
C 0.577550 0.514750 0.289780 0.029063
C 0.558110 0.510080 0.314100 -0.079630
C 0.560750 0.484030 0.331800 -0.009349
C 0.582940 0.462650 0.324780 -0.080058
H 0.421310 0.426800 0.522700 0.106121
H 0.514640 0.401140 0.467630 0.106097
H 0.618940 0.450280 0.295220 0.059323
H 0.585290 0.442280 0.338030 0.098834
H 0.575180 0.534970 0.276320 0.056100
H 0.541080 0.526860 0.319040 0.098751
B 0.539050 0.478770 0.359060 0.548960
O 0.499230 0.366720 0.514340 -0.507620
O 0.379310 0.541490 0.452840 -0.507889
C 0.976450 0.933350 0.967810 0.008188
C 0.950180 0.941740 0.984770 0.008179
C 0.984550 0.891660 0.002610 0.184517
C 0.958820 0.898730 0.017780 0.184539
C 0.941370 0.923280 0.009580 -0.100925
C 0.993870 0.908260 0.977870 -0.100985
C 0.102280 0.967280 0.800350 0.029013
C 0.099870 0.993480 0.782880 -0.386107
C 0.077550 0.014750 0.789780 0.029063
C 0.058110 0.010080 0.814100 -0.079630
C 0.060750 0.984030 0.831800 -0.009349
C 0.082940 0.962650 0.824780 -0.080058
H 0.921310 0.926800 0.022700 0.106121
H 0.014640 0.901140 0.967630 0.106097
H 0.118940 0.950280 0.795220 0.059323
H 0.085290 0.942280 0.838030 0.098834
H 0.075180 0.034970 0.776320 0.056100
H 0.041080 0.026860 0.819040 0.098751
B 0.039050 0.978770 0.859060 0.548960
O 0.999230 0.866720 0.014340 -0.507620
O 0.879310 0.041490 0.952840 -0.507889
C 0.523550 0.933350 0.032190 0.008188
C 0.549820 0.941740 0.015230 0.008179
C 0.515450 0.891660 0.997390 0.184517
C 0.541180 0.898730 0.982220 0.184539
C 0.558630 0.923280 0.990420 -0.100925
C 0.506130 0.908260 0.022130 -0.100985
C 0.397720 0.967280 0.199650 0.029013
C 0.400130 0.993480 0.217120 -0.386107
C 0.422450 0.014750 0.210220 0.029063
C 0.441890 0.010080 0.185900 -0.079630
C 0.439250 0.984030 0.168200 -0.009349
C 0.417060 0.962650 0.175220 -0.080058
H 0.578690 0.926800 0.977300 0.106121
H 0.485360 0.901140 0.032370 0.106097
H 0.381060 0.950280 0.204780 0.059323
H 0.414710 0.942280 0.161970 0.098834
H 0.424820 0.034970 0.223680 0.056100
H 0.458920 0.026860 0.180960 0.098751
B 0.460950 0.978770 0.140940 0.548960
O 0.500770 0.866720 0.985660 -0.507620
O 0.620690 0.041490 0.047160 -0.507889
C 0.023550 0.433350 0.532190 0.008188
C 0.049820 0.441740 0.515230 0.008179
C 0.015450 0.391660 0.497390 0.184517
C 0.041180 0.398730 0.482220 0.184539
C 0.058630 0.423280 0.490420 -0.100925
C 0.006130 0.408260 0.522130 -0.100985
C 0.897720 0.467280 0.699650 0.029013
C 0.900130 0.493480 0.717120 -0.386107
C 0.922450 0.514750 0.710220 0.029063
C 0.941890 0.510080 0.685900 -0.079630
C 0.939250 0.484030 0.668200 -0.009349
C 0.917060 0.462650 0.675220 -0.080058
H 0.078690 0.426800 0.477300 0.106121
H 0.985360 0.401140 0.532370 0.106097
H 0.881060 0.450280 0.704780 0.059323
H 0.914710 0.442280 0.661970 0.098834
H 0.924820 0.534970 0.723680 0.056100
H 0.958920 0.526860 0.680960 0.098751
B 0.960950 0.478770 0.640940 0.548960
O 0.000770 0.366720 0.485660 -0.507620
O 0.120690 0.541490 0.547160 -0.507889
C 0.023550 0.566650 0.967810 0.008188
C 0.049820 0.558260 0.984770 0.008179
C 0.015450 0.608340 0.002610 0.184517
C 0.041180 0.601270 0.017780 0.184539
C 0.058630 0.576720 0.009580 -0.100925
C 0.006130 0.591740 0.977870 -0.100985
C 0.897720 0.532720 0.800350 0.029013
C 0.900130 0.506520 0.782880 -0.386107
C 0.922450 0.485250 0.789780 0.029063
C 0.941890 0.489920 0.814100 -0.079630
C 0.939250 0.515970 0.831800 -0.009349
C 0.917060 0.537350 0.824780 -0.080058
H 0.078690 0.573200 0.022700 0.106121
H 0.985360 0.598860 0.967630 0.106097
H 0.881060 0.549720 0.795220 0.059323
H 0.914710 0.557720 0.838030 0.098834
H 0.924820 0.465030 0.776320 0.056100
H 0.958920 0.473140 0.819040 0.098751
B 0.960950 0.521230 0.859060 0.548960
O 0.000770 0.633280 0.014340 -0.507620
O 0.120690 0.458510 0.952840 -0.507889
C 0.523550 0.066650 0.467810 0.008188
C 0.549820 0.058260 0.484770 0.008179
C 0.515450 0.108340 0.502610 0.184517
C 0.541180 0.101270 0.517780 0.184539
C 0.558630 0.076720 0.509580 -0.100925
C 0.506130 0.091740 0.477870 -0.100985
C 0.397720 0.032720 0.300350 0.029013
C 0.400130 0.006520 0.282880 -0.386107
C 0.422450 0.985250 0.289780 0.029063
C 0.441890 0.989920 0.314100 -0.079630
C 0.439250 0.015970 0.331800 -0.009349
C 0.417060 0.037350 0.324780 -0.080058
H 0.578690 0.073200 0.522700 0.106121
H 0.485360 0.098860 0.467630 0.106097
H 0.381060 0.049720 0.295220 0.059323
H 0.414710 0.057720 0.338030 0.098834
H 0.424820 0.965030 0.276320 0.056100
H 0.458920 0.973140 0.319040 0.098751
B 0.460950 0.021230 0.359060 0.548960
O 0.500770 0.133280 0.514340 -0.507620
O 0.620690 0.958510 0.452840 -0.507889
C 0.976450 0.066650 0.532190 0.008188
C 0.950180 0.058260 0.515230 0.008179
C 0.984550 0.108340 0.497390 0.184517
C 0.958820 0.101270 0.482220 0.184539
C 0.941370 0.076720 0.490420 -0.100925
C 0.993870 0.091740 0.522130 -0.100985
C 0.102280 0.032720 0.699650 0.029013
C 0.099870 0.006520 0.717120 -0.386107
C 0.077550 0.985250 0.710220 0.029063
C 0.058110 0.989920 0.685900 -0.079630
C 0.060750 0.015970 0.668200 -0.009349
C 0.082940 0.037350 0.675220 -0.080058
H 0.921310 0.073200 0.477300 0.106121
H 0.014640 0.098860 0.532370 0.106097
H 0.118940 0.049720 0.704780 0.059323
H 0.085290 0.057720 0.661970 0.098834
H 0.075180 0.965030 0.723680 0.056100
H 0.041080 0.973140 0.680960 0.098751
B 0.039050 0.021230 0.640940 0.548960
O 0.999230 0.133280 0.485660 -0.507620
O 0.879310 0.958510 0.547160 -0.507889
C 0.476450 0.566650 0.032190 0.008188
C 0.450180 0.558260 0.015230 0.008179
C 0.484550 0.608340 0.997390 0.184517
C 0.458820 0.601270 0.982220 0.184539
C 0.441370 0.576720 0.990420 -0.100925
C 0.493870 0.591740 0.022130 -0.100985
C 0.602280 0.532720 0.199650 0.029013
C 0.599870 0.506520 0.217120 -0.386107
C 0.577550 0.485250 0.210220 0.029063
C 0.558110 0.489920 0.185900 -0.079630
C 0.560750 0.515970 0.168200 -0.009349
C 0.582940 0.537350 0.175220 -0.080058
H 0.421310 0.573200 0.977300 0.106121
H 0.514640 0.598860 0.032370 0.106097
H 0.618940 0.549720 0.204780 0.059323
H 0.585290 0.557720 0.161970 0.098834
H 0.575180 0.465030 0.223680 0.056100
H 0.541080 0.473140 0.180960 0.098751
B 0.539050 0.521230 0.140940 0.548960
O 0.499230 0.633280 0.985660 -0.507620
O 0.379310 0.458510 0.047160 -0.507889
C 0.433350 0.467810 0.476450 0.008188
C 0.441740 0.484770 0.450180 0.008179
C 0.391660 0.502610 0.484550 0.184517
C 0.398730 0.517780 0.458820 0.184539
C 0.423280 0.509580 0.441370 -0.100925
C 0.408260 0.477870 0.493870 -0.100985
C 0.467280 0.300350 0.602280 0.029013
C 0.493480 0.282880 0.599870 -0.386107
C 0.514750 0.289780 0.577550 0.029063
C 0.510080 0.314100 0.558110 -0.079630
C 0.484030 0.331800 0.560750 -0.009349
C 0.462650 0.324780 0.582940 -0.080058
H 0.426800 0.522700 0.421310 0.106121
H 0.401140 0.467630 0.514640 0.106097
H 0.450280 0.295220 0.618940 0.059323
H 0.442280 0.338030 0.585290 0.098834
H 0.534970 0.276320 0.575180 0.056100
H 0.526860 0.319040 0.541080 0.098751
B 0.478770 0.359060 0.539050 0.548960
O 0.366720 0.514340 0.499230 -0.507620
O 0.541490 0.452840 0.379310 -0.507889
C 0.933350 0.967810 0.976450 0.008188
C 0.941740 0.984770 0.950180 0.008179
C 0.891660 0.002610 0.984550 0.184517
C 0.898730 0.017780 0.958820 0.184539
C 0.923280 0.009580 0.941370 -0.100925
C 0.908260 0.977870 0.993870 -0.100985
C 0.967280 0.800350 0.102280 0.029013
C 0.993480 0.782880 0.099870 -0.386107
C 0.014750 0.789780 0.077550 0.029063
C 0.010080 0.814100 0.058110 -0.079630
C 0.984030 0.831800 0.060750 -0.009349
C 0.962650 0.824780 0.082940 -0.080058
H 0.926800 0.022700 0.921310 0.106121
H 0.901140 0.967630 0.014640 0.106097
H 0.950280 0.795220 0.118940 0.059323
H 0.942280 0.838030 0.085290 0.098834
H 0.034970 0.776320 0.075180 0.056100
H 0.026860 0.819040 0.041080 0.098751
B 0.978770 0.859060 0.039050 0.548960
O 0.866720 0.014340 0.999230 -0.507620
O 0.041490 0.952840 0.879310 -0.507889
C 0.933350 0.032190 0.523550 0.008188
C 0.941740 0.015230 0.549820 0.008179
C 0.891660 0.997390 0.515450 0.184517
C 0.898730 0.982220 0.541180 0.184539
C 0.923280 0.990420 0.558630 -0.100925
C 0.908260 0.022130 0.506130 -0.100985
C 0.967280 0.199650 0.397720 0.029013
C 0.993480 0.217120 0.400130 -0.386107
C 0.014750 0.210220 0.422450 0.029063
C 0.010080 0.185900 0.441890 -0.079630
C 0.984030 0.168200 0.439250 -0.009349
C 0.962650 0.175220 0.417060 -0.080058
H 0.926800 0.977300 0.578690 0.106121
H 0.901140 0.032370 0.485360 0.106097
H 0.950280 0.204780 0.381060 0.059323
H 0.942280 0.161970 0.414710 0.098834
H 0.034970 0.223680 0.424820 0.056100
H 0.026860 0.180960 0.458920 0.098751
B 0.978770 0.140940 0.460950 0.548960
O 0.866720 0.985660 0.500770 -0.507620
O 0.041490 0.047160 0.620690 -0.507889
C 0.433350 0.532190 0.023550 0.008188
C 0.441740 0.515230 0.049820 0.008179
C 0.391660 0.497390 0.015450 0.184517
C 0.398730 0.482220 0.041180 0.184539
C 0.423280 0.490420 0.058630 -0.100925
C 0.408260 0.522130 0.006130 -0.100985
C 0.467280 0.699650 0.897720 0.029013
C 0.493480 0.717120 0.900130 -0.386107
C 0.514750 0.710220 0.922450 0.029063
C 0.510080 0.685900 0.941890 -0.079630
C 0.484030 0.668200 0.939250 -0.009349
C 0.462650 0.675220 0.917060 -0.080058
H 0.426800 0.477300 0.078690 0.106121
H 0.401140 0.532370 0.985360 0.106097
H 0.450280 0.704780 0.881060 0.059323
H 0.442280 0.661970 0.914710 0.098834
H 0.534970 0.723680 0.924820 0.056100
H 0.526860 0.680960 0.958920 0.098751
B 0.478770 0.640940 0.960950 0.548960
O 0.366720 0.485660 0.000770 -0.507620
O 0.541490 0.547160 0.120690 -0.507889
C 0.566650 0.967810 0.023550 0.008188
C 0.558260 0.984770 0.049820 0.008179
C 0.608340 0.002610 0.015450 0.184517
C 0.601270 0.017780 0.041180 0.184539
C 0.576720 0.009580 0.058630 -0.100925
C 0.591740 0.977870 0.006130 -0.100985
C 0.532720 0.800350 0.897720 0.029013
C 0.506520 0.782880 0.900130 -0.386107
C 0.485250 0.789780 0.922450 0.029063
C 0.489920 0.814100 0.941890 -0.079630
C 0.515970 0.831800 0.939250 -0.009349
C 0.537350 0.824780 0.917060 -0.080058
H 0.573200 0.022700 0.078690 0.106121
H 0.598860 0.967630 0.985360 0.106097
H 0.549720 0.795220 0.881060 0.059323
H 0.557720 0.838030 0.914710 0.098834
H 0.465030 0.776320 0.924820 0.056100
H 0.473140 0.819040 0.958920 0.098751
B 0.521230 0.859060 0.960950 0.548960
O 0.633280 0.014340 0.000770 -0.507620
O 0.458510 0.952840 0.120690 -0.507889
C 0.066650 0.467810 0.523550 0.008188
C 0.058260 0.484770 0.549820 0.008179
C 0.108340 0.502610 0.515450 0.184517
C 0.101270 0.517780 0.541180 0.184539
C 0.076720 0.509580 0.558630 -0.100925
C 0.091740 0.477870 0.506130 -0.100985
C 0.032720 0.300350 0.397720 0.029013
C 0.006520 0.282880 0.400130 -0.386107
C 0.985250 0.289780 0.422450 0.029063
C 0.989920 0.314100 0.441890 -0.079630
C 0.015970 0.331800 0.439250 -0.009349
C 0.037350 0.324780 0.417060 -0.080058
H 0.073200 0.522700 0.578690 0.106121
H 0.098860 0.467630 0.485360 0.106097
H 0.049720 0.295220 0.381060 0.059323
H 0.057720 0.338030 0.414710 0.098834
H 0.965030 0.276320 0.424820 0.056100
H 0.973140 0.319040 0.458920 0.098751
B 0.021230 0.359060 0.460950 0.548960
O 0.133280 0.514340 0.500770 -0.507620
O 0.958510 0.452840 0.620690 -0.507889
C 0.066650 0.532190 0.976450 0.008188
C 0.058260 0.515230 0.950180 0.008179
C 0.108340 0.497390 0.984550 0.184517
C 0.101270 0.482220 0.958820 0.184539
C 0.076720 0.490420 0.941370 -0.100925
C 0.091740 0.522130 0.993870 -0.100985
C 0.032720 0.699650 0.102280 0.029013
C 0.006520 0.717120 0.099870 -0.386107
C 0.985250 0.710220 0.077550 0.029063
C 0.989920 0.685900 0.058110 -0.079630
C 0.015970 0.668200 0.060750 -0.009349
C 0.037350 0.675220 0.082940 -0.080058
H 0.073200 0.477300 0.921310 0.106121
H 0.098860 0.532370 0.014640 0.106097
H 0.049720 0.704780 0.118940 0.059323
H 0.057720 0.661970 0.085290 0.098834
H 0.965030 0.723680 0.075180 0.056100
H 0.973140 0.680960 0.041080 0.098751
B 0.021230 0.640940 0.039050 0.548960
O 0.133280 0.485660 0.999230 -0.507620
O 0.958510 0.547160 0.879310 -0.507889
C 0.566650 0.032190 0.476450 0.008188
C 0.558260 0.015230 0.450180 0.008179
C 0.608340 0.997390 0.484550 0.184517
C 0.601270 0.982220 0.458820 0.184539
C 0.576720 0.990420 0.441370 -0.100925
C 0.591740 0.022130 0.493870 -0.100985
C 0.532720 0.199650 0.602280 0.029013
C 0.506520 0.217120 0.599870 -0.386107
C 0.485250 0.210220 0.577550 0.029063
C 0.489920 0.185900 0.558110 -0.079630
C 0.515970 0.168200 0.560750 -0.009349
C 0.537350 0.175220 0.582940 -0.080058
H 0.573200 0.977300 0.421310 0.106121
H 0.598860 0.032370 0.514640 0.106097
H 0.549720 0.204780 0.618940 0.059323
H 0.557720 0.161970 0.585290 0.098834
H 0.465030 0.223680 0.575180 0.056100
H 0.473140 0.180960 0.541080 0.098751
B 0.521230 0.140940 0.539050 0.548960
O 0.633280 0.985660 0.499230 -0.507620
O 0.458510 0.047160 0.379310 -0.507889
Si 0.375000 0.000000 0.250000 1.019512
Si 0.125000 0.000000 0.750000 1.019512
Si 0.625000 0.500000 0.250000 1.019512
Si 0.875000 0.500000 0.750000 1.019512
Si 0.250000 0.375000 0.000000 1.019512
Si 0.750000 0.125000 0.000000 1.019512
Si 0.250000 0.625000 0.500000 1.019512
Si 0.750000 0.875000 0.500000 1.019512
Si 0.000000 0.250000 0.375000 1.019512
Si 0.000000 0.750000 0.125000 1.019512
Si 0.500000 0.250000 0.625000 1.019512
Si 0.500000 0.750000 0.875000 1.019512
