# CIF file generated by openbabel 2.4.1, see http://openbabel.sf.net
data_I
_chemical_name_common 'NU1000'
_cell_length_a 39.2679
_cell_length_b 39.2679
_cell_length_c 16.5666
_cell_angle_alpha 90
_cell_angle_beta 90
_cell_angle_gamma 120
_space_group_name_H-M_alt 'P 1'
_space_group_name_Hall 'P 1'
loop_
    _symmetry_equiv_pos_as_xyz
    x,y,z
loop_
    _atom_site_label
    _atom_site_type_symbol
    _atom_site_fract_x
    _atom_site_fract_y
    _atom_site_fract_z
    _atom_site_occupancy
    C1      C    0.49243   0.09362   0.13350   1.000
    C2      C    0.49206   0.12536   0.18370   1.000
    C3      C    0.46250   0.11563   0.24030   1.000
    H1      H    0.44249   0.08967   0.24626   1.000
    C4      C    0.46300   0.14506   0.28820   1.000
    H2      H    0.44325   0.13843   0.32625   1.000
    C5      C    0.49200   0.18361   0.28020   1.000
    C6      C    0.52090   0.19293   0.22300   1.000
    H3      H    0.54051   0.21898   0.21617   1.000
    C7      C    0.52100   0.16380   0.17530   1.000
    H4      H    0.54086   0.17049   0.13752   1.000
    C8      C    0.49250   0.18389   0.45930   1.000
    H5      H    0.49321   0.16350   0.43209   1.000
    C9      C    0.49160   0.21414   0.41350   1.000
    C10     C    0.49110   0.24555   0.45610   1.000
    C11     C    0.49320   0.21592   0.32920   1.000
    C12     C    0.49340   0.24671   0.28980   1.000
    H6      H    0.49371   0.24685   0.23367   1.000
    O1      O    0.46673   0.05926   0.14820   1.000
    O2      O    0.51888   0.10521   0.08097   1.000
    O3      O    0.47156   0.03602   0.00000   1.000
    O4      O    0.51750   0.03499   0.10740   1.000
    O5      O    0.39915   0.00000   0.09740   1.000
    O6      O    0.45847   0.00000   0.23860   1.000
    Zr1     Zr   0.53599   0.07198   0.00000   1.000
    Zr2     Zr   0.45497   0.00000   0.10671   1.000
    C1      C    0.90638   0.39881   0.13350   1.000
    C1      C    0.60119   0.50757   0.13350   1.000
    C1      C    0.50757   0.90638   0.13350   1.000
    C1      C    0.09362   0.60119   0.13350   1.000
    C1      C    0.39881   0.49243   0.13350   1.000
    C1      C    0.09362   0.49243   0.86650   1.000
    C1      C    0.39881   0.90638   0.86650   1.000
    C1      C    0.50757   0.60119   0.86650   1.000
    C1      C    0.90638   0.50757   0.86650   1.000
    C1      C    0.60119   0.09362   0.86650   1.000
    C1      C    0.49243   0.39881   0.86650   1.000
    C1      C    0.50757   0.90638   0.86650   1.000
    C1      C    0.09362   0.60119   0.86650   1.000
    C1      C    0.39881   0.49243   0.86650   1.000
    C1      C    0.49243   0.09362   0.86650   1.000
    C1      C    0.90638   0.39881   0.86650   1.000
    C1      C    0.60119   0.50757   0.86650   1.000
    C1      C    0.90638   0.50757   0.13350   1.000
    C1      C    0.60119   0.09362   0.13350   1.000
    C1      C    0.49243   0.39881   0.13350   1.000
    C1      C    0.09362   0.49243   0.13350   1.000
    C1      C    0.39881   0.90638   0.13350   1.000
    C1      C    0.50757   0.60119   0.13350   1.000
    C2      C    0.87464   0.36670   0.18370   1.000
    C2      C    0.63330   0.50794   0.18370   1.000
    C2      C    0.50794   0.87464   0.18370   1.000
    C2      C    0.12536   0.63330   0.18370   1.000
    C2      C    0.36670   0.49206   0.18370   1.000
    C2      C    0.12536   0.49206   0.81630   1.000
    C2      C    0.36670   0.87464   0.81630   1.000
    C2      C    0.50794   0.63330   0.81630   1.000
    C2      C    0.87464   0.50794   0.81630   1.000
    C2      C    0.63330   0.12536   0.81630   1.000
    C2      C    0.49206   0.36670   0.81630   1.000
    C2      C    0.50794   0.87464   0.81630   1.000
    C2      C    0.12536   0.63330   0.81630   1.000
    C2      C    0.36670   0.49206   0.81630   1.000
    C2      C    0.49206   0.12536   0.81630   1.000
    C2      C    0.87464   0.36670   0.81630   1.000
    C2      C    0.63330   0.50794   0.81630   1.000
    C2      C    0.87464   0.50794   0.18370   1.000
    C2      C    0.63330   0.12536   0.18370   1.000
    C2      C    0.49206   0.36670   0.18370   1.000
    C2      C    0.12536   0.49206   0.18370   1.000
    C2      C    0.36670   0.87464   0.18370   1.000
    C2      C    0.50794   0.63330   0.18370   1.000
    C3      C    0.88437   0.34687   0.24030   1.000
    C3      C    0.65313   0.53750   0.24030   1.000
    C3      C    0.53750   0.88437   0.24030   1.000
    C3      C    0.11563   0.65313   0.24030   1.000
    C3      C    0.34687   0.46250   0.24030   1.000
    C3      C    0.11563   0.46250   0.75970   1.000
    C3      C    0.34687   0.88437   0.75970   1.000
    C3      C    0.53750   0.65313   0.75970   1.000
    C3      C    0.88437   0.53750   0.75970   1.000
    C3      C    0.65313   0.11563   0.75970   1.000
    C3      C    0.46250   0.34687   0.75970   1.000
    C3      C    0.53750   0.88437   0.75970   1.000
    C3      C    0.11563   0.65313   0.75970   1.000
    C3      C    0.34687   0.46250   0.75970   1.000
    C3      C    0.46250   0.11563   0.75970   1.000
    C3      C    0.88437   0.34687   0.75970   1.000
    C3      C    0.65313   0.53750   0.75970   1.000
    C3      C    0.88437   0.53750   0.24030   1.000
    C3      C    0.65313   0.11563   0.24030   1.000
    C3      C    0.46250   0.34687   0.24030   1.000
    C3      C    0.11563   0.46250   0.24030   1.000
    C3      C    0.34687   0.88437   0.24030   1.000
    C3      C    0.53750   0.65313   0.24030   1.000
    H1      H    0.91033   0.35282   0.24626   1.000
    H1      H    0.64718   0.55751   0.24626   1.000
    H1      H    0.55751   0.91033   0.24626   1.000
    H1      H    0.08967   0.64718   0.24626   1.000
    H1      H    0.35282   0.44249   0.24626   1.000
    H1      H    0.08967   0.44249   0.75374   1.000
    H1      H    0.35282   0.91033   0.75374   1.000
    H1      H    0.55751   0.64718   0.75374   1.000
    H1      H    0.91033   0.55751   0.75374   1.000
    H1      H    0.64718   0.08967   0.75374   1.000
    H1      H    0.44249   0.35282   0.75374   1.000
    H1      H    0.55751   0.91033   0.75374   1.000
    H1      H    0.08967   0.64718   0.75374   1.000
    H1      H    0.35282   0.44249   0.75374   1.000
    H1      H    0.44249   0.08967   0.75374   1.000
    H1      H    0.91033   0.35282   0.75374   1.000
    H1      H    0.64718   0.55751   0.75374   1.000
    H1      H    0.91033   0.55751   0.24626   1.000
    H1      H    0.64718   0.08967   0.24626   1.000
    H1      H    0.44249   0.35282   0.24626   1.000
    H1      H    0.08967   0.44249   0.24626   1.000
    H1      H    0.35282   0.91033   0.24626   1.000
    H1      H    0.55751   0.64718   0.24626   1.000
    C4      C    0.85494   0.31794   0.28820   1.000
    C4      C    0.68206   0.53700   0.28820   1.000
    C4      C    0.53700   0.85494   0.28820   1.000
    C4      C    0.14506   0.68206   0.28820   1.000
    C4      C    0.31794   0.46300   0.28820   1.000
    C4      C    0.14506   0.46300   0.71180   1.000
    C4      C    0.31794   0.85494   0.71180   1.000
    C4      C    0.53700   0.68206   0.71180   1.000
    C4      C    0.85494   0.53700   0.71180   1.000
    C4      C    0.68206   0.14506   0.71180   1.000
    C4      C    0.46300   0.31794   0.71180   1.000
    C4      C    0.53700   0.85494   0.71180   1.000
    C4      C    0.14506   0.68206   0.71180   1.000
    C4      C    0.31794   0.46300   0.71180   1.000
    C4      C    0.46300   0.14506   0.71180   1.000
    C4      C    0.85494   0.31794   0.71180   1.000
    C4      C    0.68206   0.53700   0.71180   1.000
    C4      C    0.85494   0.53700   0.28820   1.000
    C4      C    0.68206   0.14506   0.28820   1.000
    C4      C    0.46300   0.31794   0.28820   1.000
    C4      C    0.14506   0.46300   0.28820   1.000
    C4      C    0.31794   0.85494   0.28820   1.000
    C4      C    0.53700   0.68206   0.28820   1.000
    H2      H    0.86157   0.30482   0.32625   1.000
    H2      H    0.69518   0.55675   0.32625   1.000
    H2      H    0.55675   0.86157   0.32625   1.000
    H2      H    0.13843   0.69518   0.32625   1.000
    H2      H    0.30482   0.44325   0.32625   1.000
    H2      H    0.13843   0.44325   0.67375   1.000
    H2      H    0.30482   0.86157   0.67375   1.000
    H2      H    0.55675   0.69518   0.67375   1.000
    H2      H    0.86157   0.55675   0.67375   1.000
    H2      H    0.69518   0.13843   0.67375   1.000
    H2      H    0.44325   0.30482   0.67375   1.000
    H2      H    0.55675   0.86157   0.67375   1.000
    H2      H    0.13843   0.69518   0.67375   1.000
    H2      H    0.30482   0.44325   0.67375   1.000
    H2      H    0.44325   0.13843   0.67375   1.000
    H2      H    0.86157   0.30482   0.67375   1.000
    H2      H    0.69518   0.55675   0.67375   1.000
    H2      H    0.86157   0.55675   0.32625   1.000
    H2      H    0.69518   0.13843   0.32625   1.000
    H2      H    0.44325   0.30482   0.32625   1.000
    H2      H    0.13843   0.44325   0.32625   1.000
    H2      H    0.30482   0.86157   0.32625   1.000
    H2      H    0.55675   0.69518   0.32625   1.000
    C5      C    0.81639   0.30839   0.28020   1.000
    C5      C    0.69161   0.50800   0.28020   1.000
    C5      C    0.50800   0.81639   0.28020   1.000
    C5      C    0.18361   0.69161   0.28020   1.000
    C5      C    0.30839   0.49200   0.28020   1.000
    C5      C    0.18361   0.49200   0.71980   1.000
    C5      C    0.30839   0.81639   0.71980   1.000
    C5      C    0.50800   0.69161   0.71980   1.000
    C5      C    0.81639   0.50800   0.71980   1.000
    C5      C    0.69161   0.18361   0.71980   1.000
    C5      C    0.49200   0.30839   0.71980   1.000
    C5      C    0.50800   0.81639   0.71980   1.000
    C5      C    0.18361   0.69161   0.71980   1.000
    C5      C    0.30839   0.49200   0.71980   1.000
    C5      C    0.49200   0.18361   0.71980   1.000
    C5      C    0.81639   0.30839   0.71980   1.000
    C5      C    0.69161   0.50800   0.71980   1.000
    C5      C    0.81639   0.50800   0.28020   1.000
    C5      C    0.69161   0.18361   0.28020   1.000
    C5      C    0.49200   0.30839   0.28020   1.000
    C5      C    0.18361   0.49200   0.28020   1.000
    C5      C    0.30839   0.81639   0.28020   1.000
    C5      C    0.50800   0.69161   0.28020   1.000
    C6      C    0.80707   0.32797   0.22300   1.000
    C6      C    0.67203   0.47910   0.22300   1.000
    C6      C    0.47910   0.80707   0.22300   1.000
    C6      C    0.19293   0.67203   0.22300   1.000
    C6      C    0.32797   0.52090   0.22300   1.000
    C6      C    0.19293   0.52090   0.77700   1.000
    C6      C    0.32797   0.80707   0.77700   1.000
    C6      C    0.47910   0.67203   0.77700   1.000
    C6      C    0.80707   0.47910   0.77700   1.000
    C6      C    0.67203   0.19293   0.77700   1.000
    C6      C    0.52090   0.32797   0.77700   1.000
    C6      C    0.47910   0.80707   0.77700   1.000
    C6      C    0.19293   0.67203   0.77700   1.000
    C6      C    0.32797   0.52090   0.77700   1.000
    C6      C    0.52090   0.19293   0.77700   1.000
    C6      C    0.80707   0.32797   0.77700   1.000
    C6      C    0.67203   0.47910   0.77700   1.000
    C6      C    0.80707   0.47910   0.22300   1.000
    C6      C    0.67203   0.19293   0.22300   1.000
    C6      C    0.52090   0.32797   0.22300   1.000
    C6      C    0.19293   0.52090   0.22300   1.000
    C6      C    0.32797   0.80707   0.22300   1.000
    C6      C    0.47910   0.67203   0.22300   1.000
    H3      H    0.78102   0.32153   0.21617   1.000
    H3      H    0.67847   0.45949   0.21617   1.000
    H3      H    0.45949   0.78102   0.21617   1.000
    H3      H    0.21898   0.67847   0.21617   1.000
    H3      H    0.32153   0.54051   0.21617   1.000
    H3      H    0.21898   0.54051   0.78383   1.000
    H3      H    0.32153   0.78102   0.78383   1.000
    H3      H    0.45949   0.67847   0.78383   1.000
    H3      H    0.78102   0.45949   0.78383   1.000
    H3      H    0.67847   0.21898   0.78383   1.000
    H3      H    0.54051   0.32153   0.78383   1.000
    H3      H    0.45949   0.78102   0.78383   1.000
    H3      H    0.21898   0.67847   0.78383   1.000
    H3      H    0.32153   0.54051   0.78383   1.000
    H3      H    0.54051   0.21898   0.78383   1.000
    H3      H    0.78102   0.32153   0.78383   1.000
    H3      H    0.67847   0.45949   0.78383   1.000
    H3      H    0.78102   0.45949   0.21617   1.000
    H3      H    0.67847   0.21898   0.21617   1.000
    H3      H    0.54051   0.32153   0.21617   1.000
    H3      H    0.21898   0.54051   0.21617   1.000
    H3      H    0.32153   0.78102   0.21617   1.000
    H3      H    0.45949   0.67847   0.21617   1.000
    C7      C    0.83620   0.35720   0.17530   1.000
    C7      C    0.64280   0.47900   0.17530   1.000
    C7      C    0.47900   0.83620   0.17530   1.000
    C7      C    0.16380   0.64280   0.17530   1.000
    C7      C    0.35720   0.52100   0.17530   1.000
    C7      C    0.16380   0.52100   0.82470   1.000
    C7      C    0.35720   0.83620   0.82470   1.000
    C7      C    0.47900   0.64280   0.82470   1.000
    C7      C    0.83620   0.47900   0.82470   1.000
    C7      C    0.64280   0.16380   0.82470   1.000
    C7      C    0.52100   0.35720   0.82470   1.000
    C7      C    0.47900   0.83620   0.82470   1.000
    C7      C    0.16380   0.64280   0.82470   1.000
    C7      C    0.35720   0.52100   0.82470   1.000
    C7      C    0.52100   0.16380   0.82470   1.000
    C7      C    0.83620   0.35720   0.82470   1.000
    C7      C    0.64280   0.47900   0.82470   1.000
    C7      C    0.83620   0.47900   0.17530   1.000
    C7      C    0.64280   0.16380   0.17530   1.000
    C7      C    0.52100   0.35720   0.17530   1.000
    C7      C    0.16380   0.52100   0.17530   1.000
    C7      C    0.35720   0.83620   0.17530   1.000
    C7      C    0.47900   0.64280   0.17530   1.000
    H4      H    0.82951   0.37037   0.13752   1.000
    H4      H    0.62963   0.45914   0.13752   1.000
    H4      H    0.45914   0.82951   0.13752   1.000
    H4      H    0.17049   0.62963   0.13752   1.000
    H4      H    0.37037   0.54086   0.13752   1.000
    H4      H    0.17049   0.54086   0.86248   1.000
    H4      H    0.37037   0.82951   0.86248   1.000
    H4      H    0.45914   0.62963   0.86248   1.000
    H4      H    0.82951   0.45914   0.86248   1.000
    H4      H    0.62963   0.17049   0.86248   1.000
    H4      H    0.54086   0.37037   0.86248   1.000
    H4      H    0.45914   0.82951   0.86248   1.000
    H4      H    0.17049   0.62963   0.86248   1.000
    H4      H    0.37037   0.54086   0.86248   1.000
    H4      H    0.54086   0.17049   0.86248   1.000
    H4      H    0.82951   0.37037   0.86248   1.000
    H4      H    0.62963   0.45914   0.86248   1.000
    H4      H    0.82951   0.45914   0.13752   1.000
    H4      H    0.62963   0.17049   0.13752   1.000
    H4      H    0.54086   0.37037   0.13752   1.000
    H4      H    0.17049   0.54086   0.13752   1.000
    H4      H    0.37037   0.82951   0.13752   1.000
    H4      H    0.45914   0.62963   0.13752   1.000
    C8      C    0.81611   0.30861   0.45930   1.000
    C8      C    0.69139   0.50750   0.45930   1.000
    C8      C    0.50750   0.81611   0.45930   1.000
    C8      C    0.18389   0.69139   0.45930   1.000
    C8      C    0.30861   0.49250   0.45930   1.000
    C8      C    0.18389   0.49250   0.54070   1.000
    C8      C    0.30861   0.81611   0.54070   1.000
    C8      C    0.50750   0.69139   0.54070   1.000
    C8      C    0.81611   0.50750   0.54070   1.000
    C8      C    0.69139   0.18389   0.54070   1.000
    C8      C    0.49250   0.30861   0.54070   1.000
    C8      C    0.50750   0.81611   0.54070   1.000
    C8      C    0.18389   0.69139   0.54070   1.000
    C8      C    0.30861   0.49250   0.54070   1.000
    C8      C    0.49250   0.18389   0.54070   1.000
    C8      C    0.81611   0.30861   0.54070   1.000
    C8      C    0.69139   0.50750   0.54070   1.000
    C8      C    0.81611   0.50750   0.45930   1.000
    C8      C    0.69139   0.18389   0.45930   1.000
    C8      C    0.49250   0.30861   0.45930   1.000
    C8      C    0.18389   0.49250   0.45930   1.000
    C8      C    0.30861   0.81611   0.45930   1.000
    C8      C    0.50750   0.69139   0.45930   1.000
    H5      H    0.83649   0.32970   0.43209   1.000
    H5      H    0.67030   0.50679   0.43209   1.000
    H5      H    0.50679   0.83649   0.43209   1.000
    H5      H    0.16350   0.67029   0.43209   1.000
    H5      H    0.32970   0.49321   0.43209   1.000
    H5      H    0.16350   0.49321   0.56791   1.000
    H5      H    0.32970   0.83649   0.56791   1.000
    H5      H    0.50679   0.67029   0.56791   1.000
    H5      H    0.83649   0.50679   0.56791   1.000
    H5      H    0.67030   0.16350   0.56791   1.000
    H5      H    0.49321   0.32970   0.56791   1.000
    H5      H    0.50679   0.83649   0.56791   1.000
    H5      H    0.16350   0.67029   0.56791   1.000
    H5      H    0.32970   0.49321   0.56791   1.000
    H5      H    0.49321   0.16350   0.56791   1.000
    H5      H    0.83649   0.32970   0.56791   1.000
    H5      H    0.67030   0.50679   0.56791   1.000
    H5      H    0.83649   0.50679   0.43209   1.000
    H5      H    0.67030   0.16350   0.43209   1.000
    H5      H    0.49321   0.32970   0.43209   1.000
    H5      H    0.16350   0.49321   0.43209   1.000
    H5      H    0.32970   0.83649   0.43209   1.000
    H5      H    0.50679   0.67029   0.43209   1.000
    C9      C    0.78586   0.27746   0.41350   1.000
    C9      C    0.72254   0.50840   0.41350   1.000
    C9      C    0.50840   0.78586   0.41350   1.000
    C9      C    0.21414   0.72254   0.41350   1.000
    C9      C    0.27746   0.49160   0.41350   1.000
    C9      C    0.21414   0.49160   0.58650   1.000
    C9      C    0.27746   0.78586   0.58650   1.000
    C9      C    0.50840   0.72254   0.58650   1.000
    C9      C    0.78586   0.50840   0.58650   1.000
    C9      C    0.72254   0.21414   0.58650   1.000
    C9      C    0.49160   0.27746   0.58650   1.000
    C9      C    0.50840   0.78586   0.58650   1.000
    C9      C    0.21414   0.72254   0.58650   1.000
    C9      C    0.27746   0.49160   0.58650   1.000
    C9      C    0.49160   0.21414   0.58650   1.000
    C9      C    0.78586   0.27746   0.58650   1.000
    C9      C    0.72254   0.50840   0.58650   1.000
    C9      C    0.78586   0.50840   0.41350   1.000
    C9      C    0.72254   0.21414   0.41350   1.000
    C9      C    0.49160   0.27746   0.41350   1.000
    C9      C    0.21414   0.49160   0.41350   1.000
    C9      C    0.27746   0.78586   0.41350   1.000
    C9      C    0.50840   0.72254   0.41350   1.000
    C10     C    0.75445   0.24555   0.45610   1.000
    C10     C    0.75445   0.50890   0.45610   1.000
    C10     C    0.50890   0.75445   0.45610   1.000
    C10     C    0.24555   0.75445   0.45610   1.000
    C10     C    0.24555   0.49110   0.45610   1.000
    C10     C    0.24555   0.49110   0.54390   1.000
    C10     C    0.24555   0.75445   0.54390   1.000
    C10     C    0.50890   0.75445   0.54390   1.000
    C10     C    0.75445   0.50890   0.54390   1.000
    C10     C    0.75445   0.24555   0.54390   1.000
    C10     C    0.49110   0.24555   0.54390   1.000
    C11     C    0.78408   0.27728   0.32920   1.000
    C11     C    0.72272   0.50680   0.32920   1.000
    C11     C    0.50680   0.78408   0.32920   1.000
    C11     C    0.21592   0.72272   0.32920   1.000
    C11     C    0.27728   0.49320   0.32920   1.000
    C11     C    0.21592   0.49320   0.67080   1.000
    C11     C    0.27728   0.78408   0.67080   1.000
    C11     C    0.50680   0.72272   0.67080   1.000
    C11     C    0.78408   0.50680   0.67080   1.000
    C11     C    0.72272   0.21592   0.67080   1.000
    C11     C    0.49320   0.27728   0.67080   1.000
    C11     C    0.50680   0.78408   0.67080   1.000
    C11     C    0.21592   0.72272   0.67080   1.000
    C11     C    0.27728   0.49320   0.67080   1.000
    C11     C    0.49320   0.21592   0.67080   1.000
    C11     C    0.78408   0.27728   0.67080   1.000
    C11     C    0.72272   0.50680   0.67080   1.000
    C11     C    0.78408   0.50680   0.32920   1.000
    C11     C    0.72272   0.21592   0.32920   1.000
    C11     C    0.49320   0.27728   0.32920   1.000
    C11     C    0.21592   0.49320   0.32920   1.000
    C11     C    0.27728   0.78408   0.32920   1.000
    C11     C    0.50680   0.72272   0.32920   1.000
    C12     C    0.75329   0.24669   0.28980   1.000
    C12     C    0.75331   0.50660   0.28980   1.000
    C12     C    0.50660   0.75329   0.28980   1.000
    C12     C    0.24671   0.75331   0.28980   1.000
    C12     C    0.24669   0.49340   0.28980   1.000
    C12     C    0.24671   0.49340   0.71020   1.000
    C12     C    0.24669   0.75329   0.71020   1.000
    C12     C    0.50660   0.75331   0.71020   1.000
    C12     C    0.75329   0.50660   0.71020   1.000
    C12     C    0.75331   0.24671   0.71020   1.000
    C12     C    0.49340   0.24669   0.71020   1.000
    H6      H    0.75314   0.24685   0.23367   1.000
    H6      H    0.75314   0.50629   0.23367   1.000
    H6      H    0.50629   0.75314   0.23367   1.000
    H6      H    0.24686   0.75314   0.23367   1.000
    H6      H    0.24685   0.49371   0.23367   1.000
    H6      H    0.24685   0.49371   0.76633   1.000
    H6      H    0.24685   0.75314   0.76633   1.000
    H6      H    0.50629   0.75314   0.76633   1.000
    H6      H    0.75314   0.50629   0.76633   1.000
    H6      H    0.75315   0.24686   0.76633   1.000
    H6      H    0.49371   0.24686   0.76633   1.000
    O1      O    0.94074   0.40747   0.14820   1.000
    O1      O    0.59253   0.53327   0.14820   1.000
    O1      O    0.53327   0.94074   0.14820   1.000
    O1      O    0.05926   0.59253   0.14820   1.000
    O1      O    0.40747   0.46673   0.14820   1.000
    O1      O    0.05926   0.46673   0.85180   1.000
    O1      O    0.40747   0.94074   0.85180   1.000
    O1      O    0.53327   0.59253   0.85180   1.000
    O1      O    0.94074   0.53327   0.85180   1.000
    O1      O    0.59253   0.05926   0.85180   1.000
    O1      O    0.46673   0.40747   0.85180   1.000
    O1      O    0.53327   0.94074   0.85180   1.000
    O1      O    0.05926   0.59253   0.85180   1.000
    O1      O    0.40747   0.46673   0.85180   1.000
    O1      O    0.46673   0.05926   0.85180   1.000
    O1      O    0.94074   0.40747   0.85180   1.000
    O1      O    0.59253   0.53327   0.85180   1.000
    O1      O    0.94074   0.53327   0.14820   1.000
    O1      O    0.59253   0.05926   0.14820   1.000
    O1      O    0.46673   0.40747   0.14820   1.000
    O1      O    0.05926   0.46673   0.14820   1.000
    O1      O    0.40747   0.94074   0.14820   1.000
    O1      O    0.53327   0.59253   0.14820   1.000
    O2      O    0.89479   0.41367   0.08097   1.000
    O2      O    0.58633   0.48112   0.08097   1.000
    O2      O    0.48112   0.89479   0.08097   1.000
    O2      O    0.10521   0.58633   0.08097   1.000
    O2      O    0.41367   0.51888   0.08097   1.000
    O2      O    0.10521   0.51888   0.91903   1.000
    O2      O    0.41367   0.89479   0.91903   1.000
    O2      O    0.48112   0.58633   0.91903   1.000
    O2      O    0.89479   0.48112   0.91903   1.000
    O2      O    0.58633   0.10521   0.91903   1.000
    O2      O    0.51888   0.41367   0.91903   1.000
    O2      O    0.48112   0.89479   0.91903   1.000
    O2      O    0.10521   0.58633   0.91903   1.000
    O2      O    0.41367   0.51888   0.91903   1.000
    O2      O    0.51888   0.10521   0.91903   1.000
    O2      O    0.89479   0.41367   0.91903   1.000
    O2      O    0.58633   0.48112   0.91903   1.000
    O2      O    0.89479   0.48112   0.08097   1.000
    O2      O    0.58633   0.10521   0.08097   1.000
    O2      O    0.51888   0.41367   0.08097   1.000
    O2      O    0.10521   0.51888   0.08097   1.000
    O2      O    0.41367   0.89479   0.08097   1.000
    O2      O    0.48112   0.58633   0.08097   1.000
    O3      O    0.96398   0.43554   0.00000   1.000
    O3      O    0.56446   0.52844   0.00000   1.000
    O3      O    0.52844   0.96398   0.00000   1.000
    O3      O    0.03602   0.56446   0.00000   1.000
    O3      O    0.43554   0.47156   0.00000   1.000
    O3      O    0.03602   0.47156   0.00000   1.000
    O3      O    0.43554   0.96398   0.00000   1.000
    O3      O    0.52844   0.56446   0.00000   1.000
    O3      O    0.96398   0.52844   0.00000   1.000
    O3      O    0.56446   0.03602   0.00000   1.000
    O3      O    0.47156   0.43554   0.00000   1.000
    O4      O    0.96501   0.48251   0.10740   1.000
    O4      O    0.51749   0.48250   0.10740   1.000
    O4      O    0.48250   0.96501   0.10740   1.000
    O4      O    0.03499   0.51749   0.10740   1.000
    O4      O    0.48251   0.51750   0.10740   1.000
    O4      O    0.03499   0.51750   0.89260   1.000
    O4      O    0.48251   0.96501   0.89260   1.000
    O4      O    0.48250   0.51749   0.89260   1.000
    O4      O    0.96501   0.48250   0.89260   1.000
    O4      O    0.51749   0.03499   0.89260   1.000
    O4      O    0.51750   0.48251   0.89260   1.000
    O5      O    0.00000   0.39915   0.09740   1.000
    O5      O    0.60085   0.60085   0.09740   1.000
    O5      O    0.60085   0.00000   0.09740   1.000
    O5      O    0.00000   0.60085   0.09740   1.000
    O5      O    0.39915   0.39915   0.09740   1.000
    O5      O    0.00000   0.39915   0.90260   1.000
    O5      O    0.39915   0.00000   0.90260   1.000
    O5      O    0.60085   0.60085   0.90260   1.000
    O5      O    0.00000   0.60085   0.90260   1.000
    O5      O    0.60085   0.00000   0.90260   1.000
    O5      O    0.39915   0.39915   0.90260   1.000
    O6      O    0.00000   0.45847   0.23860   1.000
    O6      O    0.54153   0.54153   0.23860   1.000
    O6      O    0.54153   0.00000   0.23860   1.000
    O6      O    0.00000   0.54153   0.23860   1.000
    O6      O    0.45847   0.45847   0.23860   1.000
    O6      O    0.00000   0.45847   0.76140   1.000
    O6      O    0.45847   0.00000   0.76140   1.000
    O6      O    0.54153   0.54153   0.76140   1.000
    O6      O    0.00000   0.54153   0.76140   1.000
    O6      O    0.54153   0.00000   0.76140   1.000
    O6      O    0.45847   0.45847   0.76140   1.000
    Zr1     Zr   0.92802   0.46401   0.00000   1.000
    Zr1     Zr   0.53599   0.46401   0.00000   1.000
    Zr1     Zr   0.46401   0.92802   0.00000   1.000
    Zr1     Zr   0.07198   0.53599   0.00000   1.000
    Zr1     Zr   0.46401   0.53599   0.00000   1.000
    Zr2     Zr   0.00000   0.45497   0.10671   1.000
    Zr2     Zr   0.54503   0.54503   0.10671   1.000
    Zr2     Zr   0.54503   0.00000   0.10671   1.000
    Zr2     Zr   0.00000   0.54503   0.10671   1.000
    Zr2     Zr   0.45497   0.45497   0.10671   1.000
    Zr2     Zr   0.00000   0.45497   0.89329   1.000
    Zr2     Zr   0.45497   0.00000   0.89329   1.000
    Zr2     Zr   0.54503   0.54503   0.89329   1.000
    Zr2     Zr   0.00000   0.54503   0.89329   1.000
    Zr2     Zr   0.54503   0.00000   0.89329   1.000
    Zr2     Zr   0.45497   0.45497   0.89329   1.000
