# CIF file generated by openbabel 2.4.1, see http://openbabel.sf.net
data_I
_chemical_name_common '?'
_cell_length_a 26.896
_cell_length_b 26.896
_cell_length_c 26.896
_cell_angle_alpha 90
_cell_angle_beta 90
_cell_angle_gamma 90
_space_group_name_H-M_alt 'P 1'
_space_group_name_Hall 'P 1'
loop_
    _symmetry_equiv_pos_as_xyz
    x,y,z
loop_
    _atom_site_label
    _atom_site_type_symbol
    _atom_site_fract_x
    _atom_site_fract_y
    _atom_site_fract_z
    _atom_site_occupancy
    Zr1     Zr   0.09204   0.00000   0.00000   1.000
    O1      O    0.04540   0.04540   0.04540   1.000
    O2      O    0.13260   0.00000   0.07190   1.000
    C1      C    0.11720   0.00000   0.11720   1.000
    C2      C    0.15650   0.00000   0.15650   1.000
    C3      C    0.20580   0.00000   0.14470   1.000
    H3      H    0.21490   0.00000   0.11140   1.000
    C4      C    0.24200   0.00000   0.17950   1.000
    H4      H    0.27510   0.00000   0.16950   1.000
    C5      C    0.23070   0.00000   0.23070   1.000
    Zr1     Zr   0.90796   0.00000   0.00000   1.000
    Zr1     Zr   0.00000   0.09204   0.00000   1.000
    Zr1     Zr   0.00000   0.90796   0.00000   1.000
    Zr1     Zr   0.00000   0.00000   0.09204   1.000
    Zr1     Zr   0.00000   0.00000   0.90796   1.000
    Zr1     Zr   0.09204   0.50000   0.50000   1.000
    Zr1     Zr   0.90796   0.50000   0.50000   1.000
    Zr1     Zr   0.00000   0.59204   0.50000   1.000
    Zr1     Zr   0.00000   0.40796   0.50000   1.000
    Zr1     Zr   0.00000   0.50000   0.59204   1.000
    Zr1     Zr   0.00000   0.50000   0.40796   1.000
    Zr1     Zr   0.59204   0.00000   0.50000   1.000
    Zr1     Zr   0.40796   0.00000   0.50000   1.000
    Zr1     Zr   0.50000   0.09204   0.50000   1.000
    Zr1     Zr   0.50000   0.90796   0.50000   1.000
    Zr1     Zr   0.50000   0.00000   0.59204   1.000
    Zr1     Zr   0.50000   0.00000   0.40796   1.000
    Zr1     Zr   0.59204   0.50000   0.00000   1.000
    Zr1     Zr   0.40796   0.50000   0.00000   1.000
    Zr1     Zr   0.50000   0.59204   0.00000   1.000
    Zr1     Zr   0.50000   0.40796   0.00000   1.000
    Zr1     Zr   0.50000   0.50000   0.09204   1.000
    Zr1     Zr   0.50000   0.50000   0.90796   1.000
    O1      O    0.95460   0.95460   0.04540   1.000
    O1      O    0.95460   0.04540   0.95460   1.000
    O1      O    0.04540   0.95460   0.95460   1.000
    O1      O    0.04540   0.04540   0.95460   1.000
    O1      O    0.95460   0.95460   0.95460   1.000
    O1      O    0.04540   0.95460   0.04540   1.000
    O1      O    0.95460   0.04540   0.04540   1.000
    O1      O    0.04540   0.54540   0.54540   1.000
    O1      O    0.95460   0.45460   0.54540   1.000
    O1      O    0.95460   0.54540   0.45460   1.000
    O1      O    0.04540   0.45460   0.45460   1.000
    O1      O    0.04540   0.54540   0.45460   1.000
    O1      O    0.95460   0.45460   0.45460   1.000
    O1      O    0.04540   0.45460   0.54540   1.000
    O1      O    0.95460   0.54540   0.54540   1.000
    O1      O    0.54540   0.04540   0.54540   1.000
    O1      O    0.45460   0.95460   0.54540   1.000
    O1      O    0.45460   0.04540   0.45460   1.000
    O1      O    0.54540   0.95460   0.45460   1.000
    O1      O    0.54540   0.04540   0.45460   1.000
    O1      O    0.45460   0.95460   0.45460   1.000
    O1      O    0.54540   0.95460   0.54540   1.000
    O1      O    0.45460   0.04540   0.54540   1.000
    O1      O    0.54540   0.54540   0.04540   1.000
    O1      O    0.45460   0.45460   0.04540   1.000
    O1      O    0.45460   0.54540   0.95460   1.000
    O1      O    0.54540   0.45460   0.95460   1.000
    O1      O    0.54540   0.54540   0.95460   1.000
    O1      O    0.45460   0.45460   0.95460   1.000
    O1      O    0.54540   0.45460   0.04540   1.000
    O1      O    0.45460   0.54540   0.04540   1.000
    O2      O    0.86740   0.00000   0.07190   1.000
    O2      O    0.86740   0.00000   0.92810   1.000
    O2      O    0.13260   0.00000   0.92810   1.000
    O2      O    0.07190   0.13260   0.00000   1.000
    O2      O    0.07190   0.86740   0.00000   1.000
    O2      O    0.92810   0.86740   0.00000   1.000
    O2      O    0.92810   0.13260   0.00000   1.000
    O2      O    0.00000   0.07190   0.13260   1.000
    O2      O    0.00000   0.07190   0.86740   1.000
    O2      O    0.00000   0.92810   0.86740   1.000
    O2      O    0.00000   0.92810   0.13260   1.000
    O2      O    0.00000   0.13260   0.92810   1.000
    O2      O    0.00000   0.86740   0.92810   1.000
    O2      O    0.00000   0.86740   0.07190   1.000
    O2      O    0.00000   0.13260   0.07190   1.000
    O2      O    0.13260   0.07190   0.00000   1.000
    O2      O    0.86740   0.07190   0.00000   1.000
    O2      O    0.86740   0.92810   0.00000   1.000
    O2      O    0.13260   0.92810   0.00000   1.000
    O2      O    0.07190   0.00000   0.86740   1.000
    O2      O    0.07190   0.00000   0.13260   1.000
    O2      O    0.92810   0.00000   0.13260   1.000
    O2      O    0.92810   0.00000   0.86740   1.000
    O2      O    0.13260   0.50000   0.57190   1.000
    O2      O    0.86740   0.50000   0.57190   1.000
    O2      O    0.86740   0.50000   0.42810   1.000
    O2      O    0.13260   0.50000   0.42810   1.000
    O2      O    0.07190   0.63260   0.50000   1.000
    O2      O    0.07190   0.36740   0.50000   1.000
    O2      O    0.92810   0.36740   0.50000   1.000
    O2      O    0.92810   0.63260   0.50000   1.000
    O2      O    0.00000   0.57190   0.63260   1.000
    O2      O    0.00000   0.57190   0.36740   1.000
    O2      O    0.00000   0.42810   0.36740   1.000
    O2      O    0.00000   0.42810   0.63260   1.000
    O2      O    0.00000   0.63260   0.42810   1.000
    O2      O    0.00000   0.36740   0.42810   1.000
    O2      O    0.00000   0.36740   0.57190   1.000
    O2      O    0.00000   0.63260   0.57190   1.000
    O2      O    0.13260   0.57190   0.50000   1.000
    O2      O    0.86740   0.57190   0.50000   1.000
    O2      O    0.86740   0.42810   0.50000   1.000
    O2      O    0.13260   0.42810   0.50000   1.000
    O2      O    0.07190   0.50000   0.36740   1.000
    O2      O    0.07190   0.50000   0.63260   1.000
    O2      O    0.92810   0.50000   0.63260   1.000
    O2      O    0.92810   0.50000   0.36740   1.000
    O2      O    0.63260   0.00000   0.57190   1.000
    O2      O    0.36740   0.00000   0.57190   1.000
    O2      O    0.36740   0.00000   0.42810   1.000
    O2      O    0.63260   0.00000   0.42810   1.000
    O2      O    0.57190   0.13260   0.50000   1.000
    O2      O    0.57190   0.86740   0.50000   1.000
    O2      O    0.42810   0.86740   0.50000   1.000
    O2      O    0.42810   0.13260   0.50000   1.000
    O2      O    0.50000   0.07190   0.63260   1.000
    O2      O    0.50000   0.07190   0.36740   1.000
    O2      O    0.50000   0.92810   0.36740   1.000
    O2      O    0.50000   0.92810   0.63260   1.000
    O2      O    0.50000   0.13260   0.42810   1.000
    O2      O    0.50000   0.86740   0.42810   1.000
    O2      O    0.50000   0.86740   0.57190   1.000
    O2      O    0.50000   0.13260   0.57190   1.000
    O2      O    0.63260   0.07190   0.50000   1.000
    O2      O    0.36740   0.07190   0.50000   1.000
    O2      O    0.36740   0.92810   0.50000   1.000
    O2      O    0.63260   0.92810   0.50000   1.000
    O2      O    0.57190   0.00000   0.36740   1.000
    O2      O    0.57190   0.00000   0.63260   1.000
    O2      O    0.42810   0.00000   0.63260   1.000
    O2      O    0.42810   0.00000   0.36740   1.000
    O2      O    0.63260   0.50000   0.07190   1.000
    O2      O    0.36740   0.50000   0.07190   1.000
    O2      O    0.36740   0.50000   0.92810   1.000
    O2      O    0.63260   0.50000   0.92810   1.000
    O2      O    0.57190   0.63260   0.00000   1.000
    O2      O    0.57190   0.36740   0.00000   1.000
    O2      O    0.42810   0.36740   0.00000   1.000
    O2      O    0.42810   0.63260   0.00000   1.000
    O2      O    0.50000   0.57190   0.13260   1.000
    O2      O    0.50000   0.57190   0.86740   1.000
    O2      O    0.50000   0.42810   0.86740   1.000
    O2      O    0.50000   0.42810   0.13260   1.000
    O2      O    0.50000   0.63260   0.92810   1.000
    O2      O    0.50000   0.36740   0.92810   1.000
    O2      O    0.50000   0.36740   0.07190   1.000
    O2      O    0.50000   0.63260   0.07190   1.000
    O2      O    0.63260   0.57190   0.00000   1.000
    O2      O    0.36740   0.57190   0.00000   1.000
    O2      O    0.36740   0.42810   0.00000   1.000
    O2      O    0.63260   0.42810   0.00000   1.000
    O2      O    0.57190   0.50000   0.86740   1.000
    O2      O    0.57190   0.50000   0.13260   1.000
    O2      O    0.42810   0.50000   0.13260   1.000
    O2      O    0.42810   0.50000   0.86740   1.000
    C1      C    0.88280   0.00000   0.11720   1.000
    C1      C    0.88280   0.00000   0.88280   1.000
    C1      C    0.11720   0.00000   0.88280   1.000
    C1      C    0.11720   0.11720   0.00000   1.000
    C1      C    0.11720   0.88280   0.00000   1.000
    C1      C    0.88280   0.88280   0.00000   1.000
    C1      C    0.88280   0.11720   0.00000   1.000
    C1      C    0.00000   0.11720   0.11720   1.000
    C1      C    0.00000   0.11720   0.88280   1.000
    C1      C    0.00000   0.88280   0.88280   1.000
    C1      C    0.00000   0.88280   0.11720   1.000
    C1      C    0.11720   0.50000   0.61720   1.000
    C1      C    0.88280   0.50000   0.61720   1.000
    C1      C    0.88280   0.50000   0.38280   1.000
    C1      C    0.11720   0.50000   0.38280   1.000
    C1      C    0.11720   0.61720   0.50000   1.000
    C1      C    0.11720   0.38280   0.50000   1.000
    C1      C    0.88280   0.38280   0.50000   1.000
    C1      C    0.88280   0.61720   0.50000   1.000
    C1      C    0.00000   0.61720   0.61720   1.000
    C1      C    0.00000   0.61720   0.38280   1.000
    C1      C    0.00000   0.38280   0.38280   1.000
    C1      C    0.00000   0.38280   0.61720   1.000
    C1      C    0.61720   0.00000   0.61720   1.000
    C1      C    0.38280   0.00000   0.61720   1.000
    C1      C    0.38280   0.00000   0.38280   1.000
    C1      C    0.61720   0.00000   0.38280   1.000
    C1      C    0.61720   0.11720   0.50000   1.000
    C1      C    0.61720   0.88280   0.50000   1.000
    C1      C    0.38280   0.88280   0.50000   1.000
    C1      C    0.38280   0.11720   0.50000   1.000
    C1      C    0.50000   0.11720   0.61720   1.000
    C1      C    0.50000   0.11720   0.38280   1.000
    C1      C    0.50000   0.88280   0.38280   1.000
    C1      C    0.50000   0.88280   0.61720   1.000
    C1      C    0.61720   0.50000   0.11720   1.000
    C1      C    0.38280   0.50000   0.11720   1.000
    C1      C    0.38280   0.50000   0.88280   1.000
    C1      C    0.61720   0.50000   0.88280   1.000
    C1      C    0.61720   0.61720   0.00000   1.000
    C1      C    0.61720   0.38280   0.00000   1.000
    C1      C    0.38280   0.38280   0.00000   1.000
    C1      C    0.38280   0.61720   0.00000   1.000
    C1      C    0.50000   0.61720   0.11720   1.000
    C1      C    0.50000   0.61720   0.88280   1.000
    C1      C    0.50000   0.38280   0.88280   1.000
    C1      C    0.50000   0.38280   0.11720   1.000
    C2      C    0.84350   0.00000   0.15650   1.000
    C2      C    0.84350   0.00000   0.84350   1.000
    C2      C    0.15650   0.00000   0.84350   1.000
    C2      C    0.15650   0.15650   0.00000   1.000
    C2      C    0.15650   0.84350   0.00000   1.000
    C2      C    0.84350   0.84350   0.00000   1.000
    C2      C    0.84350   0.15650   0.00000   1.000
    C2      C    0.00000   0.15650   0.15650   1.000
    C2      C    0.00000   0.15650   0.84350   1.000
    C2      C    0.00000   0.84350   0.84350   1.000
    C2      C    0.00000   0.84350   0.15650   1.000
    C2      C    0.15650   0.50000   0.65650   1.000
    C2      C    0.84350   0.50000   0.65650   1.000
    C2      C    0.84350   0.50000   0.34350   1.000
    C2      C    0.15650   0.50000   0.34350   1.000
    C2      C    0.15650   0.65650   0.50000   1.000
    C2      C    0.15650   0.34350   0.50000   1.000
    C2      C    0.84350   0.34350   0.50000   1.000
    C2      C    0.84350   0.65650   0.50000   1.000
    C2      C    0.00000   0.65650   0.65650   1.000
    C2      C    0.00000   0.65650   0.34350   1.000
    C2      C    0.00000   0.34350   0.34350   1.000
    C2      C    0.00000   0.34350   0.65650   1.000
    C2      C    0.65650   0.00000   0.65650   1.000
    C2      C    0.34350   0.00000   0.65650   1.000
    C2      C    0.34350   0.00000   0.34350   1.000
    C2      C    0.65650   0.00000   0.34350   1.000
    C2      C    0.65650   0.15650   0.50000   1.000
    C2      C    0.65650   0.84350   0.50000   1.000
    C2      C    0.34350   0.84350   0.50000   1.000
    C2      C    0.34350   0.15650   0.50000   1.000
    C2      C    0.50000   0.15650   0.65650   1.000
    C2      C    0.50000   0.15650   0.34350   1.000
    C2      C    0.50000   0.84350   0.34350   1.000
    C2      C    0.50000   0.84350   0.65650   1.000
    C2      C    0.65650   0.50000   0.15650   1.000
    C2      C    0.34350   0.50000   0.15650   1.000
    C2      C    0.34350   0.50000   0.84350   1.000
    C2      C    0.65650   0.50000   0.84350   1.000
    C2      C    0.65650   0.65650   0.00000   1.000
    C2      C    0.65650   0.34350   0.00000   1.000
    C2      C    0.34350   0.34350   0.00000   1.000
    C2      C    0.34350   0.65650   0.00000   1.000
    C2      C    0.50000   0.65650   0.15650   1.000
    C2      C    0.50000   0.65650   0.84350   1.000
    C2      C    0.50000   0.34350   0.84350   1.000
    C2      C    0.50000   0.34350   0.15650   1.000
    C3      C    0.79420   0.00000   0.14470   1.000
    C3      C    0.79420   0.00000   0.85530   1.000
    C3      C    0.20580   0.00000   0.85530   1.000
    C3      C    0.14470   0.20580   0.00000   1.000
    C3      C    0.14470   0.79420   0.00000   1.000
    C3      C    0.85530   0.79420   0.00000   1.000
    C3      C    0.85530   0.20580   0.00000   1.000
    C3      C    0.00000   0.14470   0.20580   1.000
    C3      C    0.00000   0.14470   0.79420   1.000
    C3      C    0.00000   0.85530   0.79420   1.000
    C3      C    0.00000   0.85530   0.20580   1.000
    C3      C    0.00000   0.20580   0.85530   1.000
    C3      C    0.00000   0.79420   0.85530   1.000
    C3      C    0.00000   0.79420   0.14470   1.000
    C3      C    0.00000   0.20580   0.14470   1.000
    C3      C    0.20580   0.14470   0.00000   1.000
    C3      C    0.79420   0.14470   0.00000   1.000
    C3      C    0.79420   0.85530   0.00000   1.000
    C3      C    0.20580   0.85530   0.00000   1.000
    C3      C    0.14470   0.00000   0.79420   1.000
    C3      C    0.14470   0.00000   0.20580   1.000
    C3      C    0.85530   0.00000   0.20580   1.000
    C3      C    0.85530   0.00000   0.79420   1.000
    C3      C    0.20580   0.50000   0.64470   1.000
    C3      C    0.79420   0.50000   0.64470   1.000
    C3      C    0.79420   0.50000   0.35530   1.000
    C3      C    0.20580   0.50000   0.35530   1.000
    C3      C    0.14470   0.70580   0.50000   1.000
    C3      C    0.14470   0.29420   0.50000   1.000
    C3      C    0.85530   0.29420   0.50000   1.000
    C3      C    0.85530   0.70580   0.50000   1.000
    C3      C    0.00000   0.64470   0.70580   1.000
    C3      C    0.00000   0.64470   0.29420   1.000
    C3      C    0.00000   0.35530   0.29420   1.000
    C3      C    0.00000   0.35530   0.70580   1.000
    C3      C    0.00000   0.70580   0.35530   1.000
    C3      C    0.00000   0.29420   0.35530   1.000
    C3      C    0.00000   0.29420   0.64470   1.000
    C3      C    0.00000   0.70580   0.64470   1.000
    C3      C    0.20580   0.64470   0.50000   1.000
    C3      C    0.79420   0.64470   0.50000   1.000
    C3      C    0.79420   0.35530   0.50000   1.000
    C3      C    0.20580   0.35530   0.50000   1.000
    C3      C    0.14470   0.50000   0.29420   1.000
    C3      C    0.14470   0.50000   0.70580   1.000
    C3      C    0.85530   0.50000   0.70580   1.000
    C3      C    0.85530   0.50000   0.29420   1.000
    C3      C    0.70580   0.00000   0.64470   1.000
    C3      C    0.29420   0.00000   0.64470   1.000
    C3      C    0.29420   0.00000   0.35530   1.000
    C3      C    0.70580   0.00000   0.35530   1.000
    C3      C    0.64470   0.20580   0.50000   1.000
    C3      C    0.64470   0.79420   0.50000   1.000
    C3      C    0.35530   0.79420   0.50000   1.000
    C3      C    0.35530   0.20580   0.50000   1.000
    C3      C    0.50000   0.14470   0.70580   1.000
    C3      C    0.50000   0.14470   0.29420   1.000
    C3      C    0.50000   0.85530   0.29420   1.000
    C3      C    0.50000   0.85530   0.70580   1.000
    C3      C    0.50000   0.20580   0.35530   1.000
    C3      C    0.50000   0.79420   0.35530   1.000
    C3      C    0.50000   0.79420   0.64470   1.000
    C3      C    0.50000   0.20580   0.64470   1.000
    C3      C    0.70580   0.14470   0.50000   1.000
    C3      C    0.29420   0.14470   0.50000   1.000
    C3      C    0.29420   0.85530   0.50000   1.000
    C3      C    0.70580   0.85530   0.50000   1.000
    C3      C    0.64470   0.00000   0.29420   1.000
    C3      C    0.64470   0.00000   0.70580   1.000
    C3      C    0.35530   0.00000   0.70580   1.000
    C3      C    0.35530   0.00000   0.29420   1.000
    C3      C    0.70580   0.50000   0.14470   1.000
    C3      C    0.29420   0.50000   0.14470   1.000
    C3      C    0.29420   0.50000   0.85530   1.000
    C3      C    0.70580   0.50000   0.85530   1.000
    C3      C    0.64470   0.70580   0.00000   1.000
    C3      C    0.64470   0.29420   0.00000   1.000
    C3      C    0.35530   0.29420   0.00000   1.000
    C3      C    0.35530   0.70580   0.00000   1.000
    C3      C    0.50000   0.64470   0.20580   1.000
    C3      C    0.50000   0.64470   0.79420   1.000
    C3      C    0.50000   0.35530   0.79420   1.000
    C3      C    0.50000   0.35530   0.20580   1.000
    C3      C    0.50000   0.70580   0.85530   1.000
    C3      C    0.50000   0.29420   0.85530   1.000
    C3      C    0.50000   0.29420   0.14470   1.000
    C3      C    0.50000   0.70580   0.14470   1.000
    C3      C    0.70580   0.64470   0.00000   1.000
    C3      C    0.29420   0.64470   0.00000   1.000
    C3      C    0.29420   0.35530   0.00000   1.000
    C3      C    0.70580   0.35530   0.00000   1.000
    C3      C    0.64470   0.50000   0.79420   1.000
    C3      C    0.64470   0.50000   0.20580   1.000
    C3      C    0.35530   0.50000   0.20580   1.000
    C3      C    0.35530   0.50000   0.79420   1.000
    H3      H    0.78510   0.00000   0.11140   1.000
    H3      H    0.78510   0.00000   0.88860   1.000
    H3      H    0.21490   0.00000   0.88860   1.000
    H3      H    0.11140   0.21490   0.00000   1.000
    H3      H    0.11140   0.78510   0.00000   1.000
    H3      H    0.88860   0.78510   0.00000   1.000
    H3      H    0.88860   0.21490   0.00000   1.000
    H3      H    0.00000   0.11140   0.21490   1.000
    H3      H    0.00000   0.11140   0.78510   1.000
    H3      H    0.00000   0.88860   0.78510   1.000
    H3      H    0.00000   0.88860   0.21490   1.000
    H3      H    0.00000   0.21490   0.88860   1.000
    H3      H    0.00000   0.78510   0.88860   1.000
    H3      H    0.00000   0.78510   0.11140   1.000
    H3      H    0.00000   0.21490   0.11140   1.000
    H3      H    0.21490   0.11140   0.00000   1.000
    H3      H    0.78510   0.11140   0.00000   1.000
    H3      H    0.78510   0.88860   0.00000   1.000
    H3      H    0.21490   0.88860   0.00000   1.000
    H3      H    0.11140   0.00000   0.78510   1.000
    H3      H    0.11140   0.00000   0.21490   1.000
    H3      H    0.88860   0.00000   0.21490   1.000
    H3      H    0.88860   0.00000   0.78510   1.000
    H3      H    0.21490   0.50000   0.61140   1.000
    H3      H    0.78510   0.50000   0.61140   1.000
    H3      H    0.78510   0.50000   0.38860   1.000
    H3      H    0.21490   0.50000   0.38860   1.000
    H3      H    0.11140   0.71490   0.50000   1.000
    H3      H    0.11140   0.28510   0.50000   1.000
    H3      H    0.88860   0.28510   0.50000   1.000
    H3      H    0.88860   0.71490   0.50000   1.000
    H3      H    0.00000   0.61140   0.71490   1.000
    H3      H    0.00000   0.61140   0.28510   1.000
    H3      H    0.00000   0.38860   0.28510   1.000
    H3      H    0.00000   0.38860   0.71490   1.000
    H3      H    0.00000   0.71490   0.38860   1.000
    H3      H    0.00000   0.28510   0.38860   1.000
    H3      H    0.00000   0.28510   0.61140   1.000
    H3      H    0.00000   0.71490   0.61140   1.000
    H3      H    0.21490   0.61140   0.50000   1.000
    H3      H    0.78510   0.61140   0.50000   1.000
    H3      H    0.78510   0.38860   0.50000   1.000
    H3      H    0.21490   0.38860   0.50000   1.000
    H3      H    0.11140   0.50000   0.28510   1.000
    H3      H    0.11140   0.50000   0.71490   1.000
    H3      H    0.88860   0.50000   0.71490   1.000
    H3      H    0.88860   0.50000   0.28510   1.000
    H3      H    0.71490   0.00000   0.61140   1.000
    H3      H    0.28510   0.00000   0.61140   1.000
    H3      H    0.28510   0.00000   0.38860   1.000
    H3      H    0.71490   0.00000   0.38860   1.000
    H3      H    0.61140   0.21490   0.50000   1.000
    H3      H    0.61140   0.78510   0.50000   1.000
    H3      H    0.38860   0.78510   0.50000   1.000
    H3      H    0.38860   0.21490   0.50000   1.000
    H3      H    0.50000   0.11140   0.71490   1.000
    H3      H    0.50000   0.11140   0.28510   1.000
    H3      H    0.50000   0.88860   0.28510   1.000
    H3      H    0.50000   0.88860   0.71490   1.000
    H3      H    0.50000   0.21490   0.38860   1.000
    H3      H    0.50000   0.78510   0.38860   1.000
    H3      H    0.50000   0.78510   0.61140   1.000
    H3      H    0.50000   0.21490   0.61140   1.000
    H3      H    0.71490   0.11140   0.50000   1.000
    H3      H    0.28510   0.11140   0.50000   1.000
    H3      H    0.28510   0.88860   0.50000   1.000
    H3      H    0.71490   0.88860   0.50000   1.000
    H3      H    0.61140   0.00000   0.28510   1.000
    H3      H    0.61140   0.00000   0.71490   1.000
    H3      H    0.38860   0.00000   0.71490   1.000
    H3      H    0.38860   0.00000   0.28510   1.000
    H3      H    0.71490   0.50000   0.11140   1.000
    H3      H    0.28510   0.50000   0.11140   1.000
    H3      H    0.28510   0.50000   0.88860   1.000
    H3      H    0.71490   0.50000   0.88860   1.000
    H3      H    0.61140   0.71490   0.00000   1.000
    H3      H    0.61140   0.28510   0.00000   1.000
    H3      H    0.38860   0.28510   0.00000   1.000
    H3      H    0.38860   0.71490   0.00000   1.000
    H3      H    0.50000   0.61140   0.21490   1.000
    H3      H    0.50000   0.61140   0.78510   1.000
    H3      H    0.50000   0.38860   0.78510   1.000
    H3      H    0.50000   0.38860   0.21490   1.000
    H3      H    0.50000   0.71490   0.88860   1.000
    H3      H    0.50000   0.28510   0.88860   1.000
    H3      H    0.50000   0.28510   0.11140   1.000
    H3      H    0.50000   0.71490   0.11140   1.000
    H3      H    0.71490   0.61140   0.00000   1.000
    H3      H    0.28510   0.61140   0.00000   1.000
    H3      H    0.28510   0.38860   0.00000   1.000
    H3      H    0.71490   0.38860   0.00000   1.000
    H3      H    0.61140   0.50000   0.78510   1.000
    H3      H    0.61140   0.50000   0.21490   1.000
    H3      H    0.38860   0.50000   0.21490   1.000
    H3      H    0.38860   0.50000   0.78510   1.000
    C4      C    0.75800   0.00000   0.17950   1.000
    C4      C    0.75800   0.00000   0.82050   1.000
    C4      C    0.24200   0.00000   0.82050   1.000
    C4      C    0.17950   0.24200   0.00000   1.000
    C4      C    0.17950   0.75800   0.00000   1.000
    C4      C    0.82050   0.75800   0.00000   1.000
    C4      C    0.82050   0.24200   0.00000   1.000
    C4      C    0.00000   0.17950   0.24200   1.000
    C4      C    0.00000   0.17950   0.75800   1.000
    C4      C    0.00000   0.82050   0.75800   1.000
    C4      C    0.00000   0.82050   0.24200   1.000
    C4      C    0.00000   0.24200   0.82050   1.000
    C4      C    0.00000   0.75800   0.82050   1.000
    C4      C    0.00000   0.75800   0.17950   1.000
    C4      C    0.00000   0.24200   0.17950   1.000
    C4      C    0.24200   0.17950   0.00000   1.000
    C4      C    0.75800   0.17950   0.00000   1.000
    C4      C    0.75800   0.82050   0.00000   1.000
    C4      C    0.24200   0.82050   0.00000   1.000
    C4      C    0.17950   0.00000   0.75800   1.000
    C4      C    0.17950   0.00000   0.24200   1.000
    C4      C    0.82050   0.00000   0.24200   1.000
    C4      C    0.82050   0.00000   0.75800   1.000
    C4      C    0.24200   0.50000   0.67950   1.000
    C4      C    0.75800   0.50000   0.67950   1.000
    C4      C    0.75800   0.50000   0.32050   1.000
    C4      C    0.24200   0.50000   0.32050   1.000
    C4      C    0.17950   0.74200   0.50000   1.000
    C4      C    0.17950   0.25800   0.50000   1.000
    C4      C    0.82050   0.25800   0.50000   1.000
    C4      C    0.82050   0.74200   0.50000   1.000
    C4      C    0.00000   0.67950   0.74200   1.000
    C4      C    0.00000   0.67950   0.25800   1.000
    C4      C    0.00000   0.32050   0.25800   1.000
    C4      C    0.00000   0.32050   0.74200   1.000
    C4      C    0.00000   0.74200   0.32050   1.000
    C4      C    0.00000   0.25800   0.32050   1.000
    C4      C    0.00000   0.25800   0.67950   1.000
    C4      C    0.00000   0.74200   0.67950   1.000
    C4      C    0.24200   0.67950   0.50000   1.000
    C4      C    0.75800   0.67950   0.50000   1.000
    C4      C    0.75800   0.32050   0.50000   1.000
    C4      C    0.24200   0.32050   0.50000   1.000
    C4      C    0.17950   0.50000   0.25800   1.000
    C4      C    0.17950   0.50000   0.74200   1.000
    C4      C    0.82050   0.50000   0.74200   1.000
    C4      C    0.82050   0.50000   0.25800   1.000
    C4      C    0.74200   0.00000   0.67950   1.000
    C4      C    0.25800   0.00000   0.67950   1.000
    C4      C    0.25800   0.00000   0.32050   1.000
    C4      C    0.74200   0.00000   0.32050   1.000
    C4      C    0.67950   0.24200   0.50000   1.000
    C4      C    0.67950   0.75800   0.50000   1.000
    C4      C    0.32050   0.75800   0.50000   1.000
    C4      C    0.32050   0.24200   0.50000   1.000
    C4      C    0.50000   0.17950   0.74200   1.000
    C4      C    0.50000   0.17950   0.25800   1.000
    C4      C    0.50000   0.82050   0.25800   1.000
    C4      C    0.50000   0.82050   0.74200   1.000
    C4      C    0.50000   0.24200   0.32050   1.000
    C4      C    0.50000   0.75800   0.32050   1.000
    C4      C    0.50000   0.75800   0.67950   1.000
    C4      C    0.50000   0.24200   0.67950   1.000
    C4      C    0.74200   0.17950   0.50000   1.000
    C4      C    0.25800   0.17950   0.50000   1.000
    C4      C    0.25800   0.82050   0.50000   1.000
    C4      C    0.74200   0.82050   0.50000   1.000
    C4      C    0.67950   0.00000   0.25800   1.000
    C4      C    0.67950   0.00000   0.74200   1.000
    C4      C    0.32050   0.00000   0.74200   1.000
    C4      C    0.32050   0.00000   0.25800   1.000
    C4      C    0.74200   0.50000   0.17950   1.000
    C4      C    0.25800   0.50000   0.17950   1.000
    C4      C    0.25800   0.50000   0.82050   1.000
    C4      C    0.74200   0.50000   0.82050   1.000
    C4      C    0.67950   0.74200   0.00000   1.000
    C4      C    0.67950   0.25800   0.00000   1.000
    C4      C    0.32050   0.25800   0.00000   1.000
    C4      C    0.32050   0.74200   0.00000   1.000
    C4      C    0.50000   0.67950   0.24200   1.000
    C4      C    0.50000   0.67950   0.75800   1.000
    C4      C    0.50000   0.32050   0.75800   1.000
    C4      C    0.50000   0.32050   0.24200   1.000
    C4      C    0.50000   0.74200   0.82050   1.000
    C4      C    0.50000   0.25800   0.82050   1.000
    C4      C    0.50000   0.25800   0.17950   1.000
    C4      C    0.50000   0.74200   0.17950   1.000
    C4      C    0.74200   0.67950   0.00000   1.000
    C4      C    0.25800   0.67950   0.00000   1.000
    C4      C    0.25800   0.32050   0.00000   1.000
    C4      C    0.74200   0.32050   0.00000   1.000
    C4      C    0.67950   0.50000   0.75800   1.000
    C4      C    0.67950   0.50000   0.24200   1.000
    C4      C    0.32050   0.50000   0.24200   1.000
    C4      C    0.32050   0.50000   0.75800   1.000
    H4      H    0.72490   0.00000   0.16950   1.000
    H4      H    0.72490   0.00000   0.83050   1.000
    H4      H    0.27510   0.00000   0.83050   1.000
    H4      H    0.16950   0.27510   0.00000   1.000
    H4      H    0.16950   0.72490   0.00000   1.000
    H4      H    0.83050   0.72490   0.00000   1.000
    H4      H    0.83050   0.27510   0.00000   1.000
    H4      H    0.00000   0.16950   0.27510   1.000
    H4      H    0.00000   0.16950   0.72490   1.000
    H4      H    0.00000   0.83050   0.72490   1.000
    H4      H    0.00000   0.83050   0.27510   1.000
    H4      H    0.00000   0.27510   0.83050   1.000
    H4      H    0.00000   0.72490   0.83050   1.000
    H4      H    0.00000   0.72490   0.16950   1.000
    H4      H    0.00000   0.27510   0.16950   1.000
    H4      H    0.27510   0.16950   0.00000   1.000
    H4      H    0.72490   0.16950   0.00000   1.000
    H4      H    0.72490   0.83050   0.00000   1.000
    H4      H    0.27510   0.83050   0.00000   1.000
    H4      H    0.16950   0.00000   0.72490   1.000
    H4      H    0.16950   0.00000   0.27510   1.000
    H4      H    0.83050   0.00000   0.27510   1.000
    H4      H    0.83050   0.00000   0.72490   1.000
    H4      H    0.27510   0.50000   0.66950   1.000
    H4      H    0.72490   0.50000   0.66950   1.000
    H4      H    0.72490   0.50000   0.33050   1.000
    H4      H    0.27510   0.50000   0.33050   1.000
    H4      H    0.16950   0.77510   0.50000   1.000
    H4      H    0.16950   0.22490   0.50000   1.000
    H4      H    0.83050   0.22490   0.50000   1.000
    H4      H    0.83050   0.77510   0.50000   1.000
    H4      H    0.00000   0.66950   0.77510   1.000
    H4      H    0.00000   0.66950   0.22490   1.000
    H4      H    0.00000   0.33050   0.22490   1.000
    H4      H    0.00000   0.33050   0.77510   1.000
    H4      H    0.00000   0.77510   0.33050   1.000
    H4      H    0.00000   0.22490   0.33050   1.000
    H4      H    0.00000   0.22490   0.66950   1.000
    H4      H    0.00000   0.77510   0.66950   1.000
    H4      H    0.27510   0.66950   0.50000   1.000
    H4      H    0.72490   0.66950   0.50000   1.000
    H4      H    0.72490   0.33050   0.50000   1.000
    H4      H    0.27510   0.33050   0.50000   1.000
    H4      H    0.16950   0.50000   0.22490   1.000
    H4      H    0.16950   0.50000   0.77510   1.000
    H4      H    0.83050   0.50000   0.77510   1.000
    H4      H    0.83050   0.50000   0.22490   1.000
    H4      H    0.77510   0.00000   0.66950   1.000
    H4      H    0.22490   0.00000   0.66950   1.000
    H4      H    0.22490   0.00000   0.33050   1.000
    H4      H    0.77510   0.00000   0.33050   1.000
    H4      H    0.66950   0.27510   0.50000   1.000
    H4      H    0.66950   0.72490   0.50000   1.000
    H4      H    0.33050   0.72490   0.50000   1.000
    H4      H    0.33050   0.27510   0.50000   1.000
    H4      H    0.50000   0.16950   0.77510   1.000
    H4      H    0.50000   0.16950   0.22490   1.000
    H4      H    0.50000   0.83050   0.22490   1.000
    H4      H    0.50000   0.83050   0.77510   1.000
    H4      H    0.50000   0.27510   0.33050   1.000
    H4      H    0.50000   0.72490   0.33050   1.000
    H4      H    0.50000   0.72490   0.66950   1.000
    H4      H    0.50000   0.27510   0.66950   1.000
    H4      H    0.77510   0.16950   0.50000   1.000
    H4      H    0.22490   0.16950   0.50000   1.000
    H4      H    0.22490   0.83050   0.50000   1.000
    H4      H    0.77510   0.83050   0.50000   1.000
    H4      H    0.66950   0.00000   0.22490   1.000
    H4      H    0.66950   0.00000   0.77510   1.000
    H4      H    0.33050   0.00000   0.77510   1.000
    H4      H    0.33050   0.00000   0.22490   1.000
    H4      H    0.77510   0.50000   0.16950   1.000
    H4      H    0.22490   0.50000   0.16950   1.000
    H4      H    0.22490   0.50000   0.83050   1.000
    H4      H    0.77510   0.50000   0.83050   1.000
    H4      H    0.66950   0.77510   0.00000   1.000
    H4      H    0.66950   0.22490   0.00000   1.000
    H4      H    0.33050   0.22490   0.00000   1.000
    H4      H    0.33050   0.77510   0.00000   1.000
    H4      H    0.50000   0.66950   0.27510   1.000
    H4      H    0.50000   0.66950   0.72490   1.000
    H4      H    0.50000   0.33050   0.72490   1.000
    H4      H    0.50000   0.33050   0.27510   1.000
    H4      H    0.50000   0.77510   0.83050   1.000
    H4      H    0.50000   0.22490   0.83050   1.000
    H4      H    0.50000   0.22490   0.16950   1.000
    H4      H    0.50000   0.77510   0.16950   1.000
    H4      H    0.77510   0.66950   0.00000   1.000
    H4      H    0.22490   0.66950   0.00000   1.000
    H4      H    0.22490   0.33050   0.00000   1.000
    H4      H    0.77510   0.33050   0.00000   1.000
    H4      H    0.66950   0.50000   0.72490   1.000
    H4      H    0.66950   0.50000   0.27510   1.000
    H4      H    0.33050   0.50000   0.27510   1.000
    H4      H    0.33050   0.50000   0.72490   1.000
    C5      C    0.76930   0.00000   0.23070   1.000
    C5      C    0.76930   0.00000   0.76930   1.000
    C5      C    0.23070   0.00000   0.76930   1.000
    C5      C    0.23070   0.23070   0.00000   1.000
    C5      C    0.23070   0.76930   0.00000   1.000
    C5      C    0.76930   0.76930   0.00000   1.000
    C5      C    0.76930   0.23070   0.00000   1.000
    C5      C    0.00000   0.23070   0.23070   1.000
    C5      C    0.00000   0.23070   0.76930   1.000
    C5      C    0.00000   0.76930   0.76930   1.000
    C5      C    0.00000   0.76930   0.23070   1.000
    C5      C    0.23070   0.50000   0.73070   1.000
    C5      C    0.76930   0.50000   0.73070   1.000
    C5      C    0.76930   0.50000   0.26930   1.000
    C5      C    0.23070   0.50000   0.26930   1.000
    C5      C    0.23070   0.73070   0.50000   1.000
    C5      C    0.23070   0.26930   0.50000   1.000
    C5      C    0.76930   0.26930   0.50000   1.000
    C5      C    0.76930   0.73070   0.50000   1.000
    C5      C    0.00000   0.73070   0.73070   1.000
    C5      C    0.00000   0.73070   0.26930   1.000
    C5      C    0.00000   0.26930   0.26930   1.000
    C5      C    0.00000   0.26930   0.73070   1.000
    C5      C    0.73070   0.00000   0.73070   1.000
    C5      C    0.26930   0.00000   0.73070   1.000
    C5      C    0.26930   0.00000   0.26930   1.000
    C5      C    0.73070   0.00000   0.26930   1.000
    C5      C    0.73070   0.23070   0.50000   1.000
    C5      C    0.73070   0.76930   0.50000   1.000
    C5      C    0.26930   0.76930   0.50000   1.000
    C5      C    0.26930   0.23070   0.50000   1.000
    C5      C    0.50000   0.23070   0.73070   1.000
    C5      C    0.50000   0.23070   0.26930   1.000
    C5      C    0.50000   0.76930   0.26930   1.000
    C5      C    0.50000   0.76930   0.73070   1.000
    C5      C    0.73070   0.50000   0.23070   1.000
    C5      C    0.26930   0.50000   0.23070   1.000
    C5      C    0.26930   0.50000   0.76930   1.000
    C5      C    0.73070   0.50000   0.76930   1.000
    C5      C    0.73070   0.73070   0.00000   1.000
    C5      C    0.73070   0.26930   0.00000   1.000
    C5      C    0.26930   0.26930   0.00000   1.000
    C5      C    0.26930   0.73070   0.00000   1.000
    C5      C    0.50000   0.73070   0.23070   1.000
    C5      C    0.50000   0.73070   0.76930   1.000
    C5      C    0.50000   0.26930   0.76930   1.000
    C5      C    0.50000   0.26930   0.23070   1.000
