# CIF file generated by openbabel 2.3.2, see http://openbabel.sf.net
data_I
_chemical_name_common ''
_cell_length_a 9.943
_cell_length_b 9.943
_cell_length_c 15.764
_cell_angle_alpha 90
_cell_angle_beta 90
_cell_angle_gamma 90
loop_
    _atom_site_type_symbol
    _atom_site_label
    _atom_site_Cartn_x
    _atom_site_Cartn_y
    _atom_site_Cartn_z
     Nb  Nb1     0.00000    0.00000    0.00000
     Ni  Ni1    -0.00000    9.94300    3.94100
      F   F1    -0.00000    9.94300    1.94055
      O   O1    -0.00000    9.94300    1.94055
      F   F2     0.07954    1.89712    0.00000
      N   N1     1.50537    1.50537    3.94100
      C  C1A     2.40720    1.59187    4.91837
      H  H1A     2.37837    0.97939    5.61829
     Nb  Nb1    -0.00000   -0.00000    7.88200
     Nb  Nb1     4.97150    4.97150    7.88200
     Nb  Nb1     4.97150    4.97150    0.00000
     Ni  Ni1     9.94300   -0.00000    3.94100
     Ni  Ni1    -0.00000   -0.00000    3.94100
     Ni  Ni1     9.94300    9.94300    3.94100
     Ni  Ni1     9.94300   -0.00000   11.82300
     Ni  Ni1    -0.00000    9.94300   11.82300
     Ni  Ni1     9.94300    9.94300   11.82300
     Ni  Ni1    -0.00000   -0.00000   11.82300
     Ni  Ni1     4.97150    4.97150   11.82300
     Ni  Ni1     4.97150    4.97150    3.94100
      F   F1    -0.00000   -0.00000    1.94055
      F   F1     9.94300   -0.00000    1.94055
      F   F1    -0.00000    9.94300    5.94145
      F   F1    -0.00000   -0.00000    5.94145
      F   F1     9.94300   -0.00000    5.94145
      F   F1    -0.00000   -0.00000   13.82345
      F   F1    -0.00000    9.94300   13.82345
      F   F1     9.94300   -0.00000   13.82345
      F   F1    -0.00000   -0.00000    9.82255
      F   F1    -0.00000    9.94300    9.82255
      F   F1     9.94300   -0.00000    9.82255
      F   F1     4.97150    4.97150    9.82255
      F   F1     4.97150    4.97150   13.82345
      F   F1     4.97150    4.97150    5.94145
      F   F1     4.97150    4.97150    1.94055
      F   F2     9.86346    8.04588    0.00000
      F   F2     8.04588    0.07954    0.00000
      F   F2     1.89712    9.86346    0.00000
      F   F2     9.86346    1.89712    7.88200
      F   F2     0.07954    8.04588    7.88200
      F   F2     1.89712    0.07954    7.88200
      F   F2     8.04587    9.86346    7.88200
      F   F2     5.05104    6.86862    7.88200
      F   F2     4.89196    3.07438    7.88200
      F   F2     3.07438    5.05104    7.88200
      F   F2     6.86862    4.89196    7.88200
      F   F2     4.89196    6.86862    0.00000
      F   F2     5.05104    3.07438    0.00000
      F   F2     6.86862    5.05104    0.00000
      F   F2     3.07438    4.89196    0.00000
      N   N1     8.43763    8.43763    3.94100
      N   N1     8.43763    1.50537    3.94100
      N   N1     1.50537    8.43763    3.94100
      N   N1     8.43763    8.43763   11.82300
      N   N1     1.50537    1.50537   11.82300
      N   N1     1.50537    8.43763   11.82300
      N   N1     8.43763    1.50537   11.82300
      N   N1     6.47687    6.47687   11.82300
      N   N1     3.46613    3.46613   11.82300
      N   N1     3.46613    6.47687   11.82300
      N   N1     6.47687    3.46613   11.82300
      N   N1     3.46613    3.46613    3.94100
      N   N1     6.47687    6.47687    3.94100
      N   N1     6.47687    3.46613    3.94100
      N   N1     3.46613    6.47687    3.94100
      C  C1A     7.53580    8.35113    4.91837
      C  C1A     8.35113    2.40720    4.91837
      C  C1A     1.59187    7.53580    4.91837
      C  C1A     7.53580    1.59187    2.96363
      C  C1A     2.40720    8.35113    2.96363
      C  C1A     1.59187    2.40720    2.96363
      C  C1A     8.35113    7.53580    2.96363
      C  C1A     7.53580    8.35113   10.84563
      C  C1A     2.40720    1.59187   10.84563
      C  C1A     1.59187    7.53580   10.84563
      C  C1A     8.35113    2.40720   10.84563
      C  C1A     2.40720    8.35113   12.80037
      C  C1A     7.53580    1.59187   12.80037
      C  C1A     8.35112    7.53580   12.80037
      C  C1A     1.59187    2.40720   12.80037
      C  C1A     7.37870    6.56337   12.80037
      C  C1A     2.56430    3.37963   12.80037
      C  C1A     3.37962    7.37870   12.80037
      C  C1A     6.56337    2.56430   12.80037
      C  C1A     2.56430    6.56337   10.84563
      C  C1A     7.37870    3.37963   10.84563
      C  C1A     6.56337    7.37870   10.84563
      C  C1A     3.37963    2.56430   10.84563
      C  C1A     2.56430    3.37963    2.96363
      C  C1A     7.37870    6.56337    2.96363
      C  C1A     6.56337    2.56430    2.96363
      C  C1A     3.37963    7.37870    2.96363
      C  C1A     7.37870    3.37963    4.91837
      C  C1A     2.56430    6.56337    4.91837
      C  C1A     3.37963    2.56430    4.91837
      C  C1A     6.56337    7.37870    4.91837
      H  H1A     7.56463    8.96361    5.61829
      H  H1A     8.96361    2.37837    5.61829
      H  H1A     0.97938    7.56463    5.61829
      H  H1A     7.56463    0.97939    2.26371
      H  H1A     2.37837    8.96361    2.26371
      H  H1A     0.97939    2.37837    2.26371
      H  H1A     8.96361    7.56463    2.26371
      H  H1A     7.56463    8.96361   10.14571
      H  H1A     2.37837    0.97938   10.14571
      H  H1A     0.97938    7.56463   10.14571
      H  H1A     8.96361    2.37837   10.14571
      H  H1A     2.37836    8.96361   13.50029
      H  H1A     7.56463    0.97938   13.50029
      H  H1A     8.96361    7.56463   13.50029
      H  H1A     0.97938    2.37836   13.50029
      H  H1A     7.34986    5.95088   13.50029
      H  H1A     2.59313    3.99211   13.50029
      H  H1A     3.99211    7.34986   13.50029
      H  H1A     5.95088    2.59313   13.50029
      H  H1A     2.59313    5.95088   10.14571
      H  H1A     7.34986    3.99211   10.14571
      H  H1A     5.95088    7.34987   10.14571
      H  H1A     3.99211    2.59313   10.14571
      H  H1A     2.59313    3.99211    2.26371
      H  H1A     7.34987    5.95089    2.26371
      H  H1A     5.95089    2.59313    2.26371
      H  H1A     3.99211    7.34987    2.26371
      H  H1A     7.34987    3.99211    5.61829
      H  H1A     2.59313    5.95088    5.61829
      H  H1A     3.99211    2.59313    5.61829
      H  H1A     5.95088    7.34987    5.61829
