# CIF file generated by openbabel 2.3.2, see http://openbabel.sf.net
data_I
_chemical_name_common ''
_cell_length_a 6.9186
_cell_length_b 6.9186
_cell_length_c 7.9061
_cell_angle_alpha 90
_cell_angle_beta 90
_cell_angle_gamma 90
loop_
    _atom_site_type_symbol
    _atom_site_label
    _atom_site_Cartn_x
    _atom_site_Cartn_y
    _atom_site_Cartn_z
      N   N1     3.45930    1.50134    3.95305
      C   C1     3.45930    0.61783    3.03831
      H   H1     3.45930    0.96930    2.21213
     Cu  Cu1     3.45930    3.45930    3.95305
      F   F1     3.45930    3.45930    1.83422
      F   F2     2.29213    2.29213    0.00000
     Si  Si1     3.45930    3.45930    0.00000
      N   N1     3.45930    5.41726    3.95305
      N   N1     5.41726    3.45930    3.95305
      N   N1     1.50134    3.45930    3.95305
      C   C1     3.45930    6.30077    3.03831
      C   C1     6.30077    3.45930    3.03831
      C   C1     0.61783    3.45930    3.03831
      C   C1     3.45930    0.61783    4.86779
      C   C1     3.45930    6.30077    4.86779
      C   C1     0.61783    3.45930    4.86779
      C   C1     6.30077    3.45930    4.86779
      H   H1     3.45930    5.94930    2.21213
      H   H1     5.94930    3.45930    2.21213
      H   H1     0.96930    3.45930    2.21213
      H   H1     3.45930    0.96930    5.69397
      H   H1     3.45930    5.94930    5.69397
      H   H1     0.96930    3.45930    5.69397
      H   H1     5.94930    3.45930    5.69397
      F   F1     3.45930    3.45930    6.07188
      F   F2     4.62647    4.62647    0.00000
      F   F2     4.62647    2.29213    0.00000
      F   F2     2.29213    4.62647    0.00000
