# CIF file generated by openbabel 2.4.1, see http://openbabel.sf.net
data_I
_chemical_name_common '?'
_cell_length_a 9.861
_cell_length_b 9.861
_cell_length_c 15.2529
_cell_angle_alpha 90
_cell_angle_beta 90
_cell_angle_gamma 90
_space_group_name_H-M_alt 'P 1'
_space_group_name_Hall 'P 1'
loop_
    _symmetry_equiv_pos_as_xyz
    x,y,z
loop_
    _atom_site_label
    _atom_site_type_symbol
    _atom_site_fract_x
    _atom_site_fract_y
    _atom_site_fract_z
    _atom_site_occupancy
    Ni1     Ni   0.00000   0.00000   0.25000   1.000
    Al1     Al   0.00000   0.00000   0.50000   1.000
    F1      F    0.00000   0.00000   0.38091   1.000
    N1      N    0.14995   0.14995   0.25000   1.000
    C1      C    0.17163   0.22920   0.17980   1.000
    H1      H    0.11870   0.21710   0.13000   1.000
    F2      F    0.99473   0.81720   0.50000   0.750
    Ni1     Ni   0.00000   0.00000   0.75000   1.000
    Ni1     Ni   0.50000   0.50000   0.75000   1.000
    Ni1     Ni   0.50000   0.50000   0.25000   1.000
    Al1     Al   0.00000   0.00000   0.00000   1.000
    Al1     Al   0.50000   0.50000   0.00000   1.000
    Al1     Al   0.50000   0.50000   0.50000   1.000
    F1      F    0.00000   0.00000   0.11909   1.000
    F1      F    0.00000   0.00000   0.61909   1.000
    F1      F    0.00000   0.00000   0.88091   1.000
    F1      F    0.50000   0.50000   0.88091   1.000
    F1      F    0.50000   0.50000   0.61909   1.000
    F1      F    0.50000   0.50000   0.11909   1.000
    F1      F    0.50000   0.50000   0.38091   1.000
    N1      N    0.85005   0.85005   0.25000   1.000
    N1      N    0.85005   0.14995   0.25000   1.000
    N1      N    0.14995   0.85005   0.25000   1.000
    N1      N    0.85005   0.85005   0.75000   1.000
    N1      N    0.14995   0.14995   0.75000   1.000
    N1      N    0.14995   0.85005   0.75000   1.000
    N1      N    0.85005   0.14995   0.75000   1.000
    N1      N    0.64995   0.64995   0.75000   1.000
    N1      N    0.35005   0.35005   0.75000   1.000
    N1      N    0.35005   0.64995   0.75000   1.000
    N1      N    0.64995   0.35005   0.75000   1.000
    N1      N    0.35005   0.35005   0.25000   1.000
    N1      N    0.64995   0.64995   0.25000   1.000
    N1      N    0.64995   0.35005   0.25000   1.000
    N1      N    0.35005   0.64995   0.25000   1.000
    C1      C    0.82837   0.77080   0.17980   1.000
    C1      C    0.77080   0.17163   0.17980   1.000
    C1      C    0.22920   0.82837   0.17980   1.000
    C1      C    0.82837   0.22920   0.32020   1.000
    C1      C    0.17163   0.77080   0.32020   1.000
    C1      C    0.22920   0.17163   0.32020   1.000
    C1      C    0.77080   0.82837   0.32020   1.000
    C1      C    0.82837   0.77080   0.82020   1.000
    C1      C    0.17163   0.22920   0.82020   1.000
    C1      C    0.22920   0.82837   0.82020   1.000
    C1      C    0.77080   0.17163   0.82020   1.000
    C1      C    0.17163   0.77080   0.67980   1.000
    C1      C    0.82837   0.22920   0.67980   1.000
    C1      C    0.77080   0.82837   0.67980   1.000
    C1      C    0.22920   0.17163   0.67980   1.000
    C1      C    0.67163   0.72920   0.67980   1.000
    C1      C    0.32837   0.27080   0.67980   1.000
    C1      C    0.27080   0.67163   0.67980   1.000
    C1      C    0.72920   0.32837   0.67980   1.000
    C1      C    0.32837   0.72920   0.82020   1.000
    C1      C    0.67163   0.27080   0.82020   1.000
    C1      C    0.72920   0.67163   0.82020   1.000
    C1      C    0.27080   0.32837   0.82020   1.000
    C1      C    0.32837   0.27080   0.32020   1.000
    C1      C    0.67163   0.72920   0.32020   1.000
    C1      C    0.72920   0.32837   0.32020   1.000
    C1      C    0.27080   0.67163   0.32020   1.000
    C1      C    0.67163   0.27080   0.17980   1.000
    C1      C    0.32837   0.72920   0.17980   1.000
    C1      C    0.27080   0.32837   0.17980   1.000
    C1      C    0.72920   0.67163   0.17980   1.000
    H1      H    0.88130   0.78290   0.13000   1.000
    H1      H    0.78290   0.11870   0.13000   1.000
    H1      H    0.21710   0.88130   0.13000   1.000
    H1      H    0.88130   0.21710   0.37000   1.000
    H1      H    0.11870   0.78290   0.37000   1.000
    H1      H    0.21710   0.11870   0.37000   1.000
    H1      H    0.78290   0.88130   0.37000   1.000
    H1      H    0.88130   0.78290   0.87000   1.000
    H1      H    0.11870   0.21710   0.87000   1.000
    H1      H    0.21710   0.88130   0.87000   1.000
    H1      H    0.78290   0.11870   0.87000   1.000
    H1      H    0.11870   0.78290   0.63000   1.000
    H1      H    0.88130   0.21710   0.63000   1.000
    H1      H    0.78290   0.88130   0.63000   1.000
    H1      H    0.21710   0.11870   0.63000   1.000
    H1      H    0.61870   0.71710   0.63000   1.000
    H1      H    0.38130   0.28290   0.63000   1.000
    H1      H    0.28290   0.61870   0.63000   1.000
    H1      H    0.71710   0.38130   0.63000   1.000
    H1      H    0.38130   0.71710   0.87000   1.000
    H1      H    0.61870   0.28290   0.87000   1.000
    H1      H    0.71710   0.61870   0.87000   1.000
    H1      H    0.28290   0.38130   0.87000   1.000
    H1      H    0.38130   0.28290   0.37000   1.000
    H1      H    0.61870   0.71710   0.37000   1.000
    H1      H    0.71710   0.38130   0.37000   1.000
    H1      H    0.28290   0.61870   0.37000   1.000
    H1      H    0.61870   0.28290   0.13000   1.000
    H1      H    0.38130   0.71710   0.13000   1.000
    H1      H    0.28290   0.38130   0.13000   1.000
    H1      H    0.71710   0.61870   0.13000   1.000
    F2      F    0.00527   0.18280   0.50000   0.750
    F2      F    0.18280   0.99473   0.50000   0.750
    F2      F    0.81720   0.00527   0.50000   0.750
    F2      F    0.00527   0.81720   0.00000   0.750
    F2      F    0.99473   0.18280   0.00000   0.750
    F2      F    0.81720   0.99473   0.00000   0.750
    F2      F    0.18280   0.00527   0.00000   0.750
    F2      F    0.49473   0.31720   0.00000   0.750
    F2      F    0.50527   0.68280   0.00000   0.750
    F2      F    0.68280   0.49473   0.00000   0.750
    F2      F    0.31720   0.50527   0.00000   0.750
    F2      F    0.50527   0.31720   0.50000   0.750
    F2      F    0.49473   0.68280   0.50000   0.750
    F2      F    0.31720   0.49473   0.50000   0.750
    F2      F    0.68280   0.50527   0.50000   0.750
