# CIF file generated by openbabel 2.4.1, see http://openbabel.sf.net
data_I
_chemical_name_common 'MFM-600'
_cell_length_a 20.5905
_cell_length_b 20.5905
_cell_length_c 66.874
_cell_angle_alpha 90
_cell_angle_beta 90
_cell_angle_gamma 90
_space_group_name_H-M_alt 'P 1'
_space_group_name_Hall 'P 1'
loop_
    _symmetry_equiv_pos_as_xyz
    x,y,z
loop_
    _atom_site_label
    _atom_site_type_symbol
    _atom_site_fract_x
    _atom_site_fract_y
    _atom_site_fract_z
    _atom_site_occupancy
    Zr00    Zr   0.50000   0.25000   0.58841   1.000
    Zr1     Zr   0.58516   0.33516   0.62500   1.000
    O003    O    0.50000   0.34770   0.60471   1.000
    O004    O    0.50000   0.32300   0.64065   1.000
    O005    O    0.56527   0.31380   0.57150   1.000
    O006    O    0.62680   0.36190   0.59504   1.000
    C1      C    0.61020   0.35120   0.57704   1.000
    C3      C    0.62620   0.38400   0.54187   1.000
    H3      H    0.58740   0.36310   0.53880   1.000
    N1      N    0.72530   0.50000   0.50000   1.000
    C2      C    0.64800   0.38510   0.56148   1.000
    C4      C    0.66140   0.41330   0.52687   1.000
    H4      H    0.64570   0.41290   0.51380   1.000
    C7      C    0.70400   0.41570   0.56582   1.000
    H7      H    0.71820   0.41730   0.57900   1.000
    C6      C    0.74100   0.44490   0.55103   1.000
    H6      H    0.77980   0.46550   0.55440   1.000
    C5      C    0.72050   0.44380   0.53098   1.000
    C8      C    0.75830   0.47350   0.51513   1.000
    C10     C    0.86050   0.50000   0.50000   1.000
    C9      C    0.82580   0.47270   0.51569   1.000
    H9      H    0.84750   0.45400   0.52650   1.000
    C11     C    0.93320   0.50000   0.50000   1.000
    C12     C    0.96570   0.45710   0.50960   1.000
    H12     H    0.94360   0.42530   0.51680   1.000
    O1      O    0.57610   0.44000   0.62340   1.000
    C1AA    C    0.69280   0.52620   0.61960   0.350
    H1AA    H    0.70260   0.49020   0.62740   0.350
    C3AA    C    0.72030   0.63390   0.60780   0.350
    C2AA    C    0.73080   0.58120   0.61990   0.350
    H2AA    H    0.76550   0.58270   0.62880   0.350
    C0AA    C    0.64040   0.52700   0.60730   0.350
    C17     C    0.62740   0.57890   0.59340   0.350
    H17     H    0.59370   0.57630   0.58420   0.350
    C25     C    0.66630   0.63110   0.59440   0.350
    H25     H    0.65790   0.66650   0.58610   0.350
    O0AA    O    0.55470   0.46280   0.59280   0.350
    C19     C    0.59170   0.47100   0.60690   0.350
    N4      N    0.72340   0.75000   0.60870   0.350
    C6AA    C    0.85780   0.75000   0.61270   0.350
    C5AA    C    0.82440   0.68850   0.61140   0.350
    H5AA    H    0.84600   0.64880   0.61200   0.350
    C4AA    C    0.75830   0.69330   0.60930   0.350
    C15     C    0.93340   0.75000   0.61390   0.350
    C7AA    C    0.96540   0.69990   0.61390   0.350
    Zr00    Zr   0.00000   0.75000   0.08841   1.000
    Zr00    Zr   0.00000   0.25000   0.83841   1.000
    Zr00    Zr   0.50000   0.75000   0.33841   1.000
    Zr00    Zr   0.00000   0.25000   0.91159   1.000
    Zr00    Zr   0.50000   0.75000   0.41159   1.000
    Zr00    Zr   0.50000   0.25000   0.66159   1.000
    Zr00    Zr   0.00000   0.75000   0.16159   1.000
    Zr1     Zr   0.91484   0.66484   0.12500   1.000
    Zr1     Zr   0.91484   0.33516   0.87500   1.000
    Zr1     Zr   0.58516   0.66484   0.37500   1.000
    Zr1     Zr   0.41484   0.66484   0.37500   1.000
    Zr1     Zr   0.08516   0.33516   0.87500   1.000
    Zr1     Zr   0.08516   0.66484   0.12500   1.000
    Zr1     Zr   0.41484   0.33516   0.62500   1.000
    Zr1     Zr   0.08516   0.83516   0.12500   1.000
    Zr1     Zr   0.41484   0.16484   0.62500   1.000
    Zr1     Zr   0.41484   0.83516   0.37500   1.000
    Zr1     Zr   0.08516   0.16484   0.87500   1.000
    Zr1     Zr   0.91484   0.16484   0.87500   1.000
    Zr1     Zr   0.58516   0.83516   0.37500   1.000
    Zr1     Zr   0.58516   0.16484   0.62500   1.000
    Zr1     Zr   0.91484   0.83516   0.12500   1.000
    O003    O    0.00000   0.65230   0.10471   1.000
    O003    O    0.90230   0.25000   0.85471   1.000
    O003    O    0.59770   0.75000   0.35471   1.000
    O003    O    0.00000   0.34770   0.89529   1.000
    O003    O    0.50000   0.65230   0.39529   1.000
    O003    O    0.59770   0.25000   0.64529   1.000
    O003    O    0.90230   0.75000   0.14529   1.000
    O003    O    0.09770   0.75000   0.14529   1.000
    O003    O    0.40230   0.25000   0.64529   1.000
    O003    O    0.40230   0.75000   0.35471   1.000
    O003    O    0.09770   0.25000   0.85471   1.000
    O003    O    0.00000   0.84770   0.10471   1.000
    O003    O    0.50000   0.15230   0.60471   1.000
    O003    O    0.50000   0.84770   0.39529   1.000
    O003    O    0.00000   0.15230   0.89529   1.000
    O004    O    0.00000   0.67700   0.14065   1.000
    O004    O    0.92700   0.25000   0.89065   1.000
    O004    O    0.57300   0.75000   0.39065   1.000
    O004    O    0.00000   0.32300   0.85935   1.000
    O004    O    0.50000   0.67700   0.35935   1.000
    O004    O    0.57300   0.25000   0.60935   1.000
    O004    O    0.92700   0.75000   0.10935   1.000
    O004    O    0.07300   0.75000   0.10935   1.000
    O004    O    0.42700   0.25000   0.60935   1.000
    O004    O    0.42700   0.75000   0.39065   1.000
    O004    O    0.07300   0.25000   0.89065   1.000
    O004    O    0.00000   0.82300   0.14065   1.000
    O004    O    0.50000   0.17700   0.64065   1.000
    O004    O    0.50000   0.82300   0.35935   1.000
    O004    O    0.00000   0.17700   0.85935   1.000
    O005    O    0.93473   0.68620   0.07150   1.000
    O005    O    0.93620   0.31527   0.82150   1.000
    O005    O    0.56380   0.68473   0.32150   1.000
    O005    O    0.93473   0.31380   0.92850   1.000
    O005    O    0.56527   0.68620   0.42850   1.000
    O005    O    0.56380   0.31527   0.67850   1.000
    O005    O    0.93620   0.68473   0.17850   1.000
    O005    O    0.43473   0.68620   0.42850   1.000
    O005    O    0.06527   0.31380   0.92850   1.000
    O005    O    0.06380   0.68473   0.17850   1.000
    O005    O    0.43620   0.31527   0.67850   1.000
    O005    O    0.06527   0.68620   0.07150   1.000
    O005    O    0.43473   0.31380   0.57150   1.000
    O005    O    0.43620   0.68473   0.32150   1.000
    O005    O    0.06380   0.31527   0.82150   1.000
    O005    O    0.06527   0.81380   0.07150   1.000
    O005    O    0.43473   0.18620   0.57150   1.000
    O005    O    0.43620   0.81527   0.32150   1.000
    O005    O    0.06380   0.18473   0.82150   1.000
    O005    O    0.43473   0.81380   0.42850   1.000
    O005    O    0.06527   0.18620   0.92850   1.000
    O005    O    0.06380   0.81527   0.17850   1.000
    O005    O    0.43620   0.18473   0.67850   1.000
    O005    O    0.93473   0.18620   0.92850   1.000
    O005    O    0.56527   0.81380   0.42850   1.000
    O005    O    0.56380   0.18473   0.67850   1.000
    O005    O    0.93620   0.81527   0.17850   1.000
    O005    O    0.56527   0.18620   0.57150   1.000
    O005    O    0.93473   0.81380   0.07150   1.000
    O005    O    0.93620   0.18473   0.82150   1.000
    O005    O    0.56380   0.81527   0.32150   1.000
    O006    O    0.87320   0.63810   0.09504   1.000
    O006    O    0.88810   0.37680   0.84504   1.000
    O006    O    0.61190   0.62320   0.34504   1.000
    O006    O    0.87320   0.36190   0.90496   1.000
    O006    O    0.62680   0.63810   0.40496   1.000
    O006    O    0.61190   0.37680   0.65496   1.000
    O006    O    0.88810   0.62320   0.15496   1.000
    O006    O    0.37320   0.63810   0.40496   1.000
    O006    O    0.12680   0.36190   0.90496   1.000
    O006    O    0.11190   0.62320   0.15496   1.000
    O006    O    0.38810   0.37680   0.65496   1.000
    O006    O    0.12680   0.63810   0.09504   1.000
    O006    O    0.37320   0.36190   0.59504   1.000
    O006    O    0.38810   0.62320   0.34504   1.000
    O006    O    0.11190   0.37680   0.84504   1.000
    O006    O    0.12680   0.86190   0.09504   1.000
    O006    O    0.37320   0.13810   0.59504   1.000
    O006    O    0.38810   0.87680   0.34504   1.000
    O006    O    0.11190   0.12320   0.84504   1.000
    O006    O    0.37320   0.86190   0.40496   1.000
    O006    O    0.12680   0.13810   0.90496   1.000
    O006    O    0.11190   0.87680   0.15496   1.000
    O006    O    0.38810   0.12320   0.65496   1.000
    O006    O    0.87320   0.13810   0.90496   1.000
    O006    O    0.62680   0.86190   0.40496   1.000
    O006    O    0.61190   0.12320   0.65496   1.000
    O006    O    0.88810   0.87680   0.15496   1.000
    O006    O    0.62680   0.13810   0.59504   1.000
    O006    O    0.87320   0.86190   0.09504   1.000
    O006    O    0.88810   0.12320   0.84504   1.000
    O006    O    0.61190   0.87680   0.34504   1.000
    C1      C    0.88980   0.64880   0.07704   1.000
    C1      C    0.89880   0.36020   0.82704   1.000
    C1      C    0.60120   0.63980   0.32704   1.000
    C1      C    0.88980   0.35120   0.92296   1.000
    C1      C    0.61020   0.64880   0.42296   1.000
    C1      C    0.60120   0.36020   0.67296   1.000
    C1      C    0.89880   0.63980   0.17296   1.000
    C1      C    0.38980   0.64880   0.42296   1.000
    C1      C    0.11020   0.35120   0.92296   1.000
    C1      C    0.10120   0.63980   0.17296   1.000
    C1      C    0.39880   0.36020   0.67296   1.000
    C1      C    0.11020   0.64880   0.07704   1.000
    C1      C    0.38980   0.35120   0.57704   1.000
    C1      C    0.39880   0.63980   0.32704   1.000
    C1      C    0.10120   0.36020   0.82704   1.000
    C1      C    0.11020   0.85120   0.07704   1.000
    C1      C    0.38980   0.14880   0.57704   1.000
    C1      C    0.39880   0.86020   0.32704   1.000
    C1      C    0.10120   0.13980   0.82704   1.000
    C1      C    0.38980   0.85120   0.42296   1.000
    C1      C    0.11020   0.14880   0.92296   1.000
    C1      C    0.10120   0.86020   0.17296   1.000
    C1      C    0.39880   0.13980   0.67296   1.000
    C1      C    0.88980   0.14880   0.92296   1.000
    C1      C    0.61020   0.85120   0.42296   1.000
    C1      C    0.60120   0.13980   0.67296   1.000
    C1      C    0.89880   0.86020   0.17296   1.000
    C1      C    0.61020   0.14880   0.57704   1.000
    C1      C    0.88980   0.85120   0.07704   1.000
    C1      C    0.89880   0.13980   0.82704   1.000
    C1      C    0.60120   0.86020   0.32704   1.000
    C3      C    0.87380   0.61600   0.04187   1.000
    C3      C    0.86600   0.37620   0.79187   1.000
    C3      C    0.63400   0.62380   0.29187   1.000
    C3      C    0.87380   0.38400   0.95813   1.000
    C3      C    0.62620   0.61600   0.45813   1.000
    C3      C    0.63400   0.37620   0.70813   1.000
    C3      C    0.86600   0.62380   0.20813   1.000
    C3      C    0.37380   0.61600   0.45813   1.000
    C3      C    0.12620   0.38400   0.95813   1.000
    C3      C    0.13400   0.62380   0.20813   1.000
    C3      C    0.36600   0.37620   0.70813   1.000
    C3      C    0.12620   0.61600   0.04187   1.000
    C3      C    0.37380   0.38400   0.54187   1.000
    C3      C    0.36600   0.62380   0.29187   1.000
    C3      C    0.13400   0.37620   0.79187   1.000
    C3      C    0.12620   0.88400   0.04187   1.000
    C3      C    0.37380   0.11600   0.54187   1.000
    C3      C    0.36600   0.87620   0.29187   1.000
    C3      C    0.13400   0.12380   0.79187   1.000
    C3      C    0.37380   0.88400   0.45813   1.000
    C3      C    0.12620   0.11600   0.95813   1.000
    C3      C    0.13400   0.87620   0.20813   1.000
    C3      C    0.36600   0.12380   0.70813   1.000
    C3      C    0.87380   0.11600   0.95813   1.000
    C3      C    0.62620   0.88400   0.45813   1.000
    C3      C    0.63400   0.12380   0.70813   1.000
    C3      C    0.86600   0.87620   0.20813   1.000
    C3      C    0.62620   0.11600   0.54187   1.000
    C3      C    0.87380   0.88400   0.04187   1.000
    C3      C    0.86600   0.12380   0.79187   1.000
    C3      C    0.63400   0.87620   0.29187   1.000
    H3      H    0.91260   0.63690   0.03880   1.000
    H3      H    0.88690   0.33740   0.78880   1.000
    H3      H    0.61310   0.66260   0.28880   1.000
    H3      H    0.91260   0.36310   0.96120   1.000
    H3      H    0.58740   0.63690   0.46120   1.000
    H3      H    0.61310   0.33740   0.71120   1.000
    H3      H    0.88690   0.66260   0.21120   1.000
    H3      H    0.41260   0.63690   0.46120   1.000
    H3      H    0.08740   0.36310   0.96120   1.000
    H3      H    0.11310   0.66260   0.21120   1.000
    H3      H    0.38690   0.33740   0.71120   1.000
    H3      H    0.08740   0.63690   0.03880   1.000
    H3      H    0.41260   0.36310   0.53880   1.000
    H3      H    0.38690   0.66260   0.28880   1.000
    H3      H    0.11310   0.33740   0.78880   1.000
    H3      H    0.08740   0.86310   0.03880   1.000
    H3      H    0.41260   0.13690   0.53880   1.000
    H3      H    0.38690   0.83740   0.28880   1.000
    H3      H    0.11310   0.16260   0.78880   1.000
    H3      H    0.41260   0.86310   0.46120   1.000
    H3      H    0.08740   0.13690   0.96120   1.000
    H3      H    0.11310   0.83740   0.21120   1.000
    H3      H    0.38690   0.16260   0.71120   1.000
    H3      H    0.91260   0.13690   0.96120   1.000
    H3      H    0.58740   0.86310   0.46120   1.000
    H3      H    0.61310   0.16260   0.71120   1.000
    H3      H    0.88690   0.83740   0.21120   1.000
    H3      H    0.58740   0.13690   0.53880   1.000
    H3      H    0.91260   0.86310   0.03880   1.000
    H3      H    0.88690   0.16260   0.78880   1.000
    H3      H    0.61310   0.83740   0.28880   1.000
    N1      N    0.77470   0.50000   0.00000   1.000
    N1      N    0.75000   0.47530   0.75000   1.000
    N1      N    0.75000   0.52470   0.25000   1.000
    N1      N    0.27470   0.50000   0.50000   1.000
    N1      N    0.22530   0.50000   0.00000   1.000
    N1      N    0.25000   0.52470   0.25000   1.000
    N1      N    0.25000   0.47530   0.75000   1.000
    N1      N    0.22530   0.00000   0.00000   1.000
    N1      N    0.27470   0.00000   0.50000   1.000
    N1      N    0.25000   0.97530   0.25000   1.000
    N1      N    0.25000   0.02470   0.75000   1.000
    N1      N    0.77470   0.00000   0.00000   1.000
    N1      N    0.72530   0.00000   0.50000   1.000
    N1      N    0.75000   0.02470   0.75000   1.000
    N1      N    0.75000   0.97530   0.25000   1.000
    C2      C    0.85200   0.61490   0.06148   1.000
    C2      C    0.86490   0.39800   0.81148   1.000
    C2      C    0.63510   0.60200   0.31148   1.000
    C2      C    0.85200   0.38510   0.93852   1.000
    C2      C    0.64800   0.61490   0.43852   1.000
    C2      C    0.63510   0.39800   0.68852   1.000
    C2      C    0.86490   0.60200   0.18852   1.000
    C2      C    0.35200   0.61490   0.43852   1.000
    C2      C    0.14800   0.38510   0.93852   1.000
    C2      C    0.13510   0.60200   0.18852   1.000
    C2      C    0.36490   0.39800   0.68852   1.000
    C2      C    0.14800   0.61490   0.06148   1.000
    C2      C    0.35200   0.38510   0.56148   1.000
    C2      C    0.36490   0.60200   0.31148   1.000
    C2      C    0.13510   0.39800   0.81148   1.000
    C2      C    0.14800   0.88510   0.06148   1.000
    C2      C    0.35200   0.11490   0.56148   1.000
    C2      C    0.36490   0.89800   0.31148   1.000
    C2      C    0.13510   0.10200   0.81148   1.000
    C2      C    0.35200   0.88510   0.43852   1.000
    C2      C    0.14800   0.11490   0.93852   1.000
    C2      C    0.13510   0.89800   0.18852   1.000
    C2      C    0.36490   0.10200   0.68852   1.000
    C2      C    0.85200   0.11490   0.93852   1.000
    C2      C    0.64800   0.88510   0.43852   1.000
    C2      C    0.63510   0.10200   0.68852   1.000
    C2      C    0.86490   0.89800   0.18852   1.000
    C2      C    0.64800   0.11490   0.56148   1.000
    C2      C    0.85200   0.88510   0.06148   1.000
    C2      C    0.86490   0.10200   0.81148   1.000
    C2      C    0.63510   0.89800   0.31148   1.000
    C4      C    0.83860   0.58670   0.02687   1.000
    C4      C    0.83670   0.41140   0.77687   1.000
    C4      C    0.66330   0.58860   0.27687   1.000
    C4      C    0.83860   0.41330   0.97313   1.000
    C4      C    0.66140   0.58670   0.47313   1.000
    C4      C    0.66330   0.41140   0.72313   1.000
    C4      C    0.83670   0.58860   0.22313   1.000
    C4      C    0.33860   0.58670   0.47313   1.000
    C4      C    0.16140   0.41330   0.97313   1.000
    C4      C    0.16330   0.58860   0.22313   1.000
    C4      C    0.33670   0.41140   0.72313   1.000
    C4      C    0.16140   0.58670   0.02687   1.000
    C4      C    0.33860   0.41330   0.52687   1.000
    C4      C    0.33670   0.58860   0.27687   1.000
    C4      C    0.16330   0.41140   0.77687   1.000
    C4      C    0.16140   0.91330   0.02687   1.000
    C4      C    0.33860   0.08670   0.52687   1.000
    C4      C    0.33670   0.91140   0.27687   1.000
    C4      C    0.16330   0.08860   0.77687   1.000
    C4      C    0.33860   0.91330   0.47313   1.000
    C4      C    0.16140   0.08670   0.97313   1.000
    C4      C    0.16330   0.91140   0.22313   1.000
    C4      C    0.33670   0.08860   0.72313   1.000
    C4      C    0.83860   0.08670   0.97313   1.000
    C4      C    0.66140   0.91330   0.47313   1.000
    C4      C    0.66330   0.08860   0.72313   1.000
    C4      C    0.83670   0.91140   0.22313   1.000
    C4      C    0.66140   0.08670   0.52687   1.000
    C4      C    0.83860   0.91330   0.02687   1.000
    C4      C    0.83670   0.08860   0.77687   1.000
    C4      C    0.66330   0.91140   0.27687   1.000
    H4      H    0.85430   0.58710   0.01380   1.000
    H4      H    0.83710   0.39570   0.76380   1.000
    H4      H    0.66290   0.60430   0.26380   1.000
    H4      H    0.85430   0.41290   0.98620   1.000
    H4      H    0.64570   0.58710   0.48620   1.000
    H4      H    0.66290   0.39570   0.73620   1.000
    H4      H    0.83710   0.60430   0.23620   1.000
    H4      H    0.35430   0.58710   0.48620   1.000
    H4      H    0.14570   0.41290   0.98620   1.000
    H4      H    0.16290   0.60430   0.23620   1.000
    H4      H    0.33710   0.39570   0.73620   1.000
    H4      H    0.14570   0.58710   0.01380   1.000
    H4      H    0.35430   0.41290   0.51380   1.000
    H4      H    0.33710   0.60430   0.26380   1.000
    H4      H    0.16290   0.39570   0.76380   1.000
    H4      H    0.14570   0.91290   0.01380   1.000
    H4      H    0.35430   0.08710   0.51380   1.000
    H4      H    0.33710   0.89570   0.26380   1.000
    H4      H    0.16290   0.10430   0.76380   1.000
    H4      H    0.35430   0.91290   0.48620   1.000
    H4      H    0.14570   0.08710   0.98620   1.000
    H4      H    0.16290   0.89570   0.23620   1.000
    H4      H    0.33710   0.10430   0.73620   1.000
    H4      H    0.85430   0.08710   0.98620   1.000
    H4      H    0.64570   0.91290   0.48620   1.000
    H4      H    0.66290   0.10430   0.73620   1.000
    H4      H    0.83710   0.89570   0.23620   1.000
    H4      H    0.64570   0.08710   0.51380   1.000
    H4      H    0.85430   0.91290   0.01380   1.000
    H4      H    0.83710   0.10430   0.76380   1.000
    H4      H    0.66290   0.89570   0.26380   1.000
    C7      C    0.79600   0.58430   0.06582   1.000
    C7      C    0.83430   0.45400   0.81582   1.000
    C7      C    0.66570   0.54600   0.31582   1.000
    C7      C    0.79600   0.41570   0.93418   1.000
    C7      C    0.70400   0.58430   0.43418   1.000
    C7      C    0.66570   0.45400   0.68418   1.000
    C7      C    0.83430   0.54600   0.18418   1.000
    C7      C    0.29600   0.58430   0.43418   1.000
    C7      C    0.20400   0.41570   0.93418   1.000
    C7      C    0.16570   0.54600   0.18418   1.000
    C7      C    0.33430   0.45400   0.68418   1.000
    C7      C    0.20400   0.58430   0.06582   1.000
    C7      C    0.29600   0.41570   0.56582   1.000
    C7      C    0.33430   0.54600   0.31582   1.000
    C7      C    0.16570   0.45400   0.81582   1.000
    C7      C    0.20400   0.91570   0.06582   1.000
    C7      C    0.29600   0.08430   0.56582   1.000
    C7      C    0.33430   0.95400   0.31582   1.000
    C7      C    0.16570   0.04600   0.81582   1.000
    C7      C    0.29600   0.91570   0.43418   1.000
    C7      C    0.20400   0.08430   0.93418   1.000
    C7      C    0.16570   0.95400   0.18418   1.000
    C7      C    0.33430   0.04600   0.68418   1.000
    C7      C    0.79600   0.08430   0.93418   1.000
    C7      C    0.70400   0.91570   0.43418   1.000
    C7      C    0.66570   0.04600   0.68418   1.000
    C7      C    0.83430   0.95400   0.18418   1.000
    C7      C    0.70400   0.08430   0.56582   1.000
    C7      C    0.79600   0.91570   0.06582   1.000
    C7      C    0.83430   0.04600   0.81582   1.000
    C7      C    0.66570   0.95400   0.31582   1.000
    H7      H    0.78180   0.58270   0.07900   1.000
    H7      H    0.83270   0.46820   0.82900   1.000
    H7      H    0.66730   0.53180   0.32900   1.000
    H7      H    0.78180   0.41730   0.92100   1.000
    H7      H    0.71820   0.58270   0.42100   1.000
    H7      H    0.66730   0.46820   0.67100   1.000
    H7      H    0.83270   0.53180   0.17100   1.000
    H7      H    0.28180   0.58270   0.42100   1.000
    H7      H    0.21820   0.41730   0.92100   1.000
    H7      H    0.16730   0.53180   0.17100   1.000
    H7      H    0.33270   0.46820   0.67100   1.000
    H7      H    0.21820   0.58270   0.07900   1.000
    H7      H    0.28180   0.41730   0.57900   1.000
    H7      H    0.33270   0.53180   0.32900   1.000
    H7      H    0.16730   0.46820   0.82900   1.000
    H7      H    0.21820   0.91730   0.07900   1.000
    H7      H    0.28180   0.08270   0.57900   1.000
    H7      H    0.33270   0.96820   0.32900   1.000
    H7      H    0.16730   0.03180   0.82900   1.000
    H7      H    0.28180   0.91730   0.42100   1.000
    H7      H    0.21820   0.08270   0.92100   1.000
    H7      H    0.16730   0.96820   0.17100   1.000
    H7      H    0.33270   0.03180   0.67100   1.000
    H7      H    0.78180   0.08270   0.92100   1.000
    H7      H    0.71820   0.91730   0.42100   1.000
    H7      H    0.66730   0.03180   0.67100   1.000
    H7      H    0.83270   0.96820   0.17100   1.000
    H7      H    0.71820   0.08270   0.57900   1.000
    H7      H    0.78180   0.91730   0.07900   1.000
    H7      H    0.83270   0.03180   0.82900   1.000
    H7      H    0.66730   0.96820   0.32900   1.000
    C6      C    0.75900   0.55510   0.05103   1.000
    C6      C    0.80510   0.49100   0.80103   1.000
    C6      C    0.69490   0.50900   0.30103   1.000
    C6      C    0.75900   0.44490   0.94897   1.000
    C6      C    0.74100   0.55510   0.44897   1.000
    C6      C    0.69490   0.49100   0.69897   1.000
    C6      C    0.80510   0.50900   0.19897   1.000
    C6      C    0.25900   0.55510   0.44897   1.000
    C6      C    0.24100   0.44490   0.94897   1.000
    C6      C    0.19490   0.50900   0.19897   1.000
    C6      C    0.30510   0.49100   0.69897   1.000
    C6      C    0.24100   0.55510   0.05103   1.000
    C6      C    0.25900   0.44490   0.55103   1.000
    C6      C    0.30510   0.50900   0.30103   1.000
    C6      C    0.19490   0.49100   0.80103   1.000
    C6      C    0.24100   0.94490   0.05103   1.000
    C6      C    0.25900   0.05510   0.55103   1.000
    C6      C    0.30510   0.99100   0.30103   1.000
    C6      C    0.19490   0.00900   0.80103   1.000
    C6      C    0.25900   0.94490   0.44897   1.000
    C6      C    0.24100   0.05510   0.94897   1.000
    C6      C    0.19490   0.99100   0.19897   1.000
    C6      C    0.30510   0.00900   0.69897   1.000
    C6      C    0.75900   0.05510   0.94897   1.000
    C6      C    0.74100   0.94490   0.44897   1.000
    C6      C    0.69490   0.00900   0.69897   1.000
    C6      C    0.80510   0.99100   0.19897   1.000
    C6      C    0.74100   0.05510   0.55103   1.000
    C6      C    0.75900   0.94490   0.05103   1.000
    C6      C    0.80510   0.00900   0.80103   1.000
    C6      C    0.69490   0.99100   0.30103   1.000
    C17     C    0.87260   0.42110   0.09340   0.350
    C17     C    0.67110   0.37740   0.84340   0.350
    C17     C    0.82890   0.62260   0.34340   0.350
    C17     C    0.87260   0.57890   0.90660   0.350
    C17     C    0.62740   0.42110   0.40660   0.350
    C17     C    0.82890   0.37740   0.65660   0.350
    C17     C    0.67110   0.62260   0.15660   0.350
    C17     C    0.37260   0.42110   0.40660   0.350
    C17     C    0.12740   0.57890   0.90660   0.350
    C17     C    0.32890   0.62260   0.15660   0.350
    C17     C    0.17110   0.37740   0.65660   0.350
    C17     C    0.12740   0.42110   0.09340   0.350
    C17     C    0.37260   0.57890   0.59340   0.350
    C17     C    0.17110   0.62260   0.34340   0.350
    C17     C    0.32890   0.37740   0.84340   0.350
    C17     C    0.12740   0.07890   0.09340   0.350
    C17     C    0.37260   0.92110   0.59340   0.350
    C17     C    0.17110   0.87740   0.34340   0.350
    C17     C    0.32890   0.12260   0.84340   0.350
    C17     C    0.37260   0.07890   0.40660   0.350
    C17     C    0.12740   0.92110   0.90660   0.350
    C17     C    0.32890   0.87740   0.15660   0.350
    C17     C    0.17110   0.12260   0.65660   0.350
    C17     C    0.87260   0.92110   0.90660   0.350
    C17     C    0.62740   0.07890   0.40660   0.350
    C17     C    0.82890   0.12260   0.65660   0.350
    C17     C    0.67110   0.87740   0.15660   0.350
    C17     C    0.62740   0.92110   0.59340   0.350
    C17     C    0.87260   0.07890   0.09340   0.350
    C17     C    0.67110   0.12260   0.84340   0.350
    C17     C    0.82890   0.87740   0.34340   0.350
    H6      H    0.72020   0.53450   0.05440   1.000
    H6      H    0.78450   0.52980   0.80440   1.000
    H6      H    0.71550   0.47020   0.30440   1.000
    H6      H    0.72020   0.46550   0.94560   1.000
    H6      H    0.77980   0.53450   0.44560   1.000
    H6      H    0.71550   0.52980   0.69560   1.000
    H6      H    0.78450   0.47020   0.19560   1.000
    H6      H    0.22020   0.53450   0.44560   1.000
    H6      H    0.27980   0.46550   0.94560   1.000
    H6      H    0.21550   0.47020   0.19560   1.000
    H6      H    0.28450   0.52980   0.69560   1.000
    H6      H    0.27980   0.53450   0.05440   1.000
    H6      H    0.22020   0.46550   0.55440   1.000
    H6      H    0.28450   0.47020   0.30440   1.000
    H6      H    0.21550   0.52980   0.80440   1.000
    H6      H    0.27980   0.96550   0.05440   1.000
    H6      H    0.22020   0.03450   0.55440   1.000
    H6      H    0.28450   0.02980   0.30440   1.000
    H6      H    0.21550   0.97020   0.80440   1.000
    H6      H    0.22020   0.96550   0.44560   1.000
    H6      H    0.27980   0.03450   0.94560   1.000
    H6      H    0.21550   0.02980   0.19560   1.000
    H6      H    0.28450   0.97020   0.69560   1.000
    H6      H    0.72020   0.03450   0.94560   1.000
    H6      H    0.77980   0.96550   0.44560   1.000
    H6      H    0.71550   0.97020   0.69560   1.000
    H6      H    0.78450   0.02980   0.19560   1.000
    H6      H    0.77980   0.03450   0.55440   1.000
    H6      H    0.72020   0.96550   0.05440   1.000
    H6      H    0.78450   0.97020   0.80440   1.000
    H6      H    0.71550   0.02980   0.30440   1.000
    C5      C    0.77950   0.55620   0.03098   1.000
    C5      C    0.80620   0.47050   0.78098   1.000
    C5      C    0.69380   0.52950   0.28098   1.000
    C5      C    0.77950   0.44380   0.96902   1.000
    C5      C    0.72050   0.55620   0.46902   1.000
    C5      C    0.69380   0.47050   0.71902   1.000
    C5      C    0.80620   0.52950   0.21902   1.000
    C5      C    0.27950   0.55620   0.46902   1.000
    C5      C    0.22050   0.44380   0.96902   1.000
    C5      C    0.19380   0.52950   0.21902   1.000
    C5      C    0.30620   0.47050   0.71902   1.000
    C5      C    0.22050   0.55620   0.03098   1.000
    C5      C    0.27950   0.44380   0.53098   1.000
    C5      C    0.30620   0.52950   0.28098   1.000
    C5      C    0.19380   0.47050   0.78098   1.000
    C5      C    0.22050   0.94380   0.03098   1.000
    C5      C    0.27950   0.05620   0.53098   1.000
    C5      C    0.30620   0.97050   0.28098   1.000
    C5      C    0.19380   0.02950   0.78098   1.000
    C5      C    0.27950   0.94380   0.46902   1.000
    C5      C    0.22050   0.05620   0.96902   1.000
    C5      C    0.19380   0.97050   0.21902   1.000
    C5      C    0.30620   0.02950   0.71902   1.000
    C5      C    0.77950   0.05620   0.96902   1.000
    C5      C    0.72050   0.94380   0.46902   1.000
    C5      C    0.69380   0.02950   0.71902   1.000
    C5      C    0.80620   0.97050   0.21902   1.000
    C5      C    0.72050   0.05620   0.53098   1.000
    C5      C    0.77950   0.94380   0.03098   1.000
    C5      C    0.80620   0.02950   0.78098   1.000
    C5      C    0.69380   0.97050   0.28098   1.000
    C8      C    0.74170   0.52650   0.01513   1.000
    C8      C    0.77650   0.50830   0.76513   1.000
    C8      C    0.72350   0.49170   0.26513   1.000
    C8      C    0.74170   0.47350   0.98487   1.000
    C8      C    0.75830   0.52650   0.48487   1.000
    C8      C    0.72350   0.50830   0.73487   1.000
    C8      C    0.77650   0.49170   0.23487   1.000
    C8      C    0.24170   0.52650   0.48487   1.000
    C8      C    0.25830   0.47350   0.98487   1.000
    C8      C    0.22350   0.49170   0.23487   1.000
    C8      C    0.27650   0.50830   0.73487   1.000
    C8      C    0.25830   0.52650   0.01513   1.000
    C8      C    0.24170   0.47350   0.51513   1.000
    C8      C    0.27650   0.49170   0.26513   1.000
    C8      C    0.22350   0.50830   0.76513   1.000
    C8      C    0.25830   0.97350   0.01513   1.000
    C8      C    0.24170   0.02650   0.51513   1.000
    C8      C    0.27650   0.00830   0.26513   1.000
    C8      C    0.22350   0.99170   0.76513   1.000
    C8      C    0.24170   0.97350   0.48487   1.000
    C8      C    0.25830   0.02650   0.98487   1.000
    C8      C    0.22350   0.00830   0.23487   1.000
    C8      C    0.27650   0.99170   0.73487   1.000
    C8      C    0.74170   0.02650   0.98487   1.000
    C8      C    0.75830   0.97350   0.48487   1.000
    C8      C    0.72350   0.99170   0.73487   1.000
    C8      C    0.77650   0.00830   0.23487   1.000
    C8      C    0.75830   0.02650   0.51513   1.000
    C8      C    0.74170   0.97350   0.01513   1.000
    C8      C    0.77650   0.99170   0.76513   1.000
    C8      C    0.72350   0.00830   0.26513   1.000
    C10     C    0.63950   0.50000   0.00000   1.000
    C10     C    0.75000   0.61050   0.75000   1.000
    C10     C    0.75000   0.38950   0.25000   1.000
    C10     C    0.13950   0.50000   0.50000   1.000
    C10     C    0.36050   0.50000   0.00000   1.000
    C10     C    0.25000   0.38950   0.25000   1.000
    C10     C    0.25000   0.61050   0.75000   1.000
    C10     C    0.36050   0.00000   0.00000   1.000
    C10     C    0.13950   0.00000   0.50000   1.000
    C10     C    0.25000   0.11050   0.25000   1.000
    C10     C    0.25000   0.88950   0.75000   1.000
    C10     C    0.63950   0.00000   0.00000   1.000
    C10     C    0.86050   0.00000   0.50000   1.000
    C10     C    0.75000   0.88950   0.75000   1.000
    C10     C    0.75000   0.11050   0.25000   1.000
    C9      C    0.67420   0.52730   0.01569   1.000
    C9      C    0.77730   0.57580   0.76569   1.000
    C9      C    0.72270   0.42420   0.26569   1.000
    C9      C    0.67420   0.47270   0.98431   1.000
    C9      C    0.82580   0.52730   0.48431   1.000
    C9      C    0.72270   0.57580   0.73431   1.000
    C9      C    0.77730   0.42420   0.23431   1.000
    C9      C    0.17420   0.52730   0.48431   1.000
    C9      C    0.32580   0.47270   0.98431   1.000
    C9      C    0.22270   0.42420   0.23431   1.000
    C9      C    0.27730   0.57580   0.73431   1.000
    C9      C    0.32580   0.52730   0.01569   1.000
    C9      C    0.17420   0.47270   0.51569   1.000
    C9      C    0.27730   0.42420   0.26569   1.000
    C9      C    0.22270   0.57580   0.76569   1.000
    C9      C    0.32580   0.97270   0.01569   1.000
    C9      C    0.17420   0.02730   0.51569   1.000
    C9      C    0.27730   0.07580   0.26569   1.000
    C9      C    0.22270   0.92420   0.76569   1.000
    C9      C    0.17420   0.97270   0.48431   1.000
    C9      C    0.32580   0.02730   0.98431   1.000
    C9      C    0.22270   0.07580   0.23431   1.000
    C9      C    0.27730   0.92420   0.73431   1.000
    C9      C    0.67420   0.02730   0.98431   1.000
    C9      C    0.82580   0.97270   0.48431   1.000
    C9      C    0.72270   0.92420   0.73431   1.000
    C9      C    0.77730   0.07580   0.23431   1.000
    C9      C    0.82580   0.02730   0.51569   1.000
    C9      C    0.67420   0.97270   0.01569   1.000
    C9      C    0.77730   0.92420   0.76569   1.000
    C9      C    0.72270   0.07580   0.26569   1.000
    H9      H    0.65250   0.54600   0.02650   1.000
    H9      H    0.79600   0.59750   0.77650   1.000
    H9      H    0.70400   0.40250   0.27650   1.000
    H9      H    0.65250   0.45400   0.97350   1.000
    H9      H    0.84750   0.54600   0.47350   1.000
    H9      H    0.70400   0.59750   0.72350   1.000
    H9      H    0.79600   0.40250   0.22350   1.000
    H9      H    0.15250   0.54600   0.47350   1.000
    H9      H    0.34750   0.45400   0.97350   1.000
    H9      H    0.20400   0.40250   0.22350   1.000
    H9      H    0.29600   0.59750   0.72350   1.000
    H9      H    0.34750   0.54600   0.02650   1.000
    H9      H    0.15250   0.45400   0.52650   1.000
    H9      H    0.29600   0.40250   0.27650   1.000
    H9      H    0.20400   0.59750   0.77650   1.000
    H9      H    0.34750   0.95400   0.02650   1.000
    H9      H    0.15250   0.04600   0.52650   1.000
    H9      H    0.29600   0.09750   0.27650   1.000
    H9      H    0.20400   0.90250   0.77650   1.000
    H9      H    0.15250   0.95400   0.47350   1.000
    H9      H    0.34750   0.04600   0.97350   1.000
    H9      H    0.20400   0.09750   0.22350   1.000
    H9      H    0.29600   0.90250   0.72350   1.000
    H9      H    0.65250   0.04600   0.97350   1.000
    H9      H    0.84750   0.95400   0.47350   1.000
    H9      H    0.70400   0.90250   0.72350   1.000
    H9      H    0.79600   0.09750   0.22350   1.000
    H9      H    0.84750   0.04600   0.52650   1.000
    H9      H    0.65250   0.95400   0.02650   1.000
    H9      H    0.79600   0.90250   0.77650   1.000
    H9      H    0.70400   0.09750   0.27650   1.000
    C11     C    0.56680   0.50000   0.00000   1.000
    C11     C    0.75000   0.68320   0.75000   1.000
    C11     C    0.75000   0.31680   0.25000   1.000
    C11     C    0.06680   0.50000   0.50000   1.000
    C11     C    0.43320   0.50000   0.00000   1.000
    C11     C    0.25000   0.31680   0.25000   1.000
    C11     C    0.25000   0.68320   0.75000   1.000
    C11     C    0.43320   0.00000   0.00000   1.000
    C11     C    0.06680   0.00000   0.50000   1.000
    C11     C    0.25000   0.18320   0.25000   1.000
    C11     C    0.25000   0.81680   0.75000   1.000
    C11     C    0.56680   0.00000   0.00000   1.000
    C11     C    0.93320   0.00000   0.50000   1.000
    C11     C    0.75000   0.81680   0.75000   1.000
    C11     C    0.75000   0.18320   0.25000   1.000
    C12     C    0.53430   0.54290   0.00960   1.000
    C12     C    0.79290   0.71570   0.75960   1.000
    C12     C    0.70710   0.28430   0.25960   1.000
    C12     C    0.53430   0.45710   0.99040   1.000
    C12     C    0.96570   0.54290   0.49040   1.000
    C12     C    0.70710   0.71570   0.74040   1.000
    C12     C    0.79290   0.28430   0.24040   1.000
    C12     C    0.03430   0.54290   0.49040   1.000
    C12     C    0.46570   0.45710   0.99040   1.000
    C12     C    0.20710   0.28430   0.24040   1.000
    C12     C    0.29290   0.71570   0.74040   1.000
    C12     C    0.46570   0.54290   0.00960   1.000
    C12     C    0.03430   0.45710   0.50960   1.000
    C12     C    0.29290   0.28430   0.25960   1.000
    C12     C    0.20710   0.71570   0.75960   1.000
    C12     C    0.46570   0.95710   0.00960   1.000
    C12     C    0.03430   0.04290   0.50960   1.000
    C12     C    0.29290   0.21570   0.25960   1.000
    C12     C    0.20710   0.78430   0.75960   1.000
    C12     C    0.03430   0.95710   0.49040   1.000
    C12     C    0.46570   0.04290   0.99040   1.000
    C12     C    0.20710   0.21570   0.24040   1.000
    C12     C    0.29290   0.78430   0.74040   1.000
    C12     C    0.53430   0.04290   0.99040   1.000
    C12     C    0.96570   0.95710   0.49040   1.000
    C12     C    0.70710   0.78430   0.74040   1.000
    C12     C    0.79290   0.21570   0.24040   1.000
    C12     C    0.96570   0.04290   0.50960   1.000
    C12     C    0.53430   0.95710   0.00960   1.000
    C12     C    0.79290   0.78430   0.75960   1.000
    C12     C    0.70710   0.21570   0.25960   1.000
    H12     H    0.55640   0.57470   0.01680   1.000
    H12     H    0.82470   0.69360   0.76680   1.000
    H12     H    0.67530   0.30640   0.26680   1.000
    H12     H    0.55640   0.42530   0.98320   1.000
    H12     H    0.94360   0.57470   0.48320   1.000
    H12     H    0.67530   0.69360   0.73320   1.000
    H12     H    0.82470   0.30640   0.23320   1.000
    H12     H    0.05640   0.57470   0.48320   1.000
    H12     H    0.44360   0.42530   0.98320   1.000
    H12     H    0.17530   0.30640   0.23320   1.000
    H12     H    0.32470   0.69360   0.73320   1.000
    H12     H    0.44360   0.57470   0.01680   1.000
    H12     H    0.05640   0.42530   0.51680   1.000
    H12     H    0.32470   0.30640   0.26680   1.000
    H12     H    0.17530   0.69360   0.76680   1.000
    H12     H    0.44360   0.92530   0.01680   1.000
    H12     H    0.05640   0.07470   0.51680   1.000
    H12     H    0.32470   0.19360   0.26680   1.000
    H12     H    0.17530   0.80640   0.76680   1.000
    H12     H    0.05640   0.92530   0.48320   1.000
    H12     H    0.44360   0.07470   0.98320   1.000
    H12     H    0.17530   0.19360   0.23320   1.000
    H12     H    0.32470   0.80640   0.73320   1.000
    H12     H    0.55640   0.07470   0.98320   1.000
    H12     H    0.94360   0.92530   0.48320   1.000
    H12     H    0.67530   0.80640   0.73320   1.000
    H12     H    0.82470   0.19360   0.23320   1.000
    H12     H    0.94360   0.07470   0.51680   1.000
    H12     H    0.55640   0.92530   0.01680   1.000
    H12     H    0.82470   0.80640   0.76680   1.000
    H12     H    0.67530   0.19360   0.26680   1.000
    O1      O    0.92390   0.56000   0.12340   1.000
    O1      O    0.81000   0.32610   0.87340   1.000
    O1      O    0.69000   0.67390   0.37340   1.000
    O1      O    0.92390   0.44000   0.87660   1.000
    O1      O    0.57610   0.56000   0.37660   1.000
    O1      O    0.69000   0.32610   0.62660   1.000
    O1      O    0.81000   0.67390   0.12660   1.000
    O1      O    0.42390   0.56000   0.37660   1.000
    O1      O    0.07610   0.44000   0.87660   1.000
    O1      O    0.19000   0.67390   0.12660   1.000
    O1      O    0.31000   0.32610   0.62660   1.000
    O1      O    0.07610   0.56000   0.12340   1.000
    O1      O    0.42390   0.44000   0.62340   1.000
    O1      O    0.31000   0.67390   0.37340   1.000
    O1      O    0.19000   0.32610   0.87340   1.000
    O1      O    0.07610   0.94000   0.12340   1.000
    O1      O    0.42390   0.06000   0.62340   1.000
    O1      O    0.31000   0.82610   0.37340   1.000
    O1      O    0.19000   0.17390   0.87340   1.000
    O1      O    0.42390   0.94000   0.37660   1.000
    O1      O    0.07610   0.06000   0.87660   1.000
    O1      O    0.19000   0.82610   0.12660   1.000
    O1      O    0.31000   0.17390   0.62660   1.000
    O1      O    0.92390   0.06000   0.87660   1.000
    O1      O    0.57610   0.94000   0.37660   1.000
    O1      O    0.69000   0.17390   0.62660   1.000
    O1      O    0.81000   0.82610   0.12660   1.000
    O1      O    0.57610   0.06000   0.62340   1.000
    O1      O    0.92390   0.94000   0.12340   1.000
    O1      O    0.81000   0.17390   0.87340   1.000
    O1      O    0.69000   0.82610   0.37340   1.000
    C1AA    C    0.80720   0.47380   0.11960   0.350
    C1AA    C    0.72380   0.44280   0.86960   0.350
    C1AA    C    0.77620   0.55720   0.36960   0.350
    C1AA    C    0.80720   0.52620   0.88040   0.350
    C1AA    C    0.69280   0.47380   0.38040   0.350
    C1AA    C    0.77620   0.44280   0.63040   0.350
    C1AA    C    0.72380   0.55720   0.13040   0.350
    C1AA    C    0.30720   0.47380   0.38040   0.350
    C1AA    C    0.19280   0.52620   0.88040   0.350
    C1AA    C    0.27620   0.55720   0.13040   0.350
    C1AA    C    0.22380   0.44280   0.63040   0.350
    C1AA    C    0.19280   0.47380   0.11960   0.350
    C1AA    C    0.30720   0.52620   0.61960   0.350
    C1AA    C    0.22380   0.55720   0.36960   0.350
    C1AA    C    0.27620   0.44280   0.86960   0.350
    C1AA    C    0.19280   0.02620   0.11960   0.350
    C1AA    C    0.30720   0.97380   0.61960   0.350
    C1AA    C    0.22380   0.94280   0.36960   0.350
    C1AA    C    0.27620   0.05720   0.86960   0.350
    C1AA    C    0.30720   0.02620   0.38040   0.350
    C1AA    C    0.19280   0.97380   0.88040   0.350
    C1AA    C    0.27620   0.94280   0.13040   0.350
    C1AA    C    0.22380   0.05720   0.63040   0.350
    C1AA    C    0.80720   0.97380   0.88040   0.350
    C1AA    C    0.69280   0.02620   0.38040   0.350
    C1AA    C    0.77620   0.05720   0.63040   0.350
    C1AA    C    0.72380   0.94280   0.13040   0.350
    C1AA    C    0.69280   0.97380   0.61960   0.350
    C1AA    C    0.80720   0.02620   0.11960   0.350
    C1AA    C    0.72380   0.05720   0.86960   0.350
    C1AA    C    0.77620   0.94280   0.36960   0.350
    H1AA    H    0.79740   0.50980   0.12740   0.350
    H1AA    H    0.75980   0.45260   0.87740   0.350
    H1AA    H    0.74020   0.54740   0.37740   0.350
    H1AA    H    0.79740   0.49020   0.87260   0.350
    H1AA    H    0.70260   0.50980   0.37260   0.350
    H1AA    H    0.74020   0.45260   0.62260   0.350
    H1AA    H    0.75980   0.54740   0.12260   0.350
    H1AA    H    0.29740   0.50980   0.37260   0.350
    H1AA    H    0.20260   0.49020   0.87260   0.350
    H1AA    H    0.24020   0.54740   0.12260   0.350
    H1AA    H    0.25980   0.45260   0.62260   0.350
    H1AA    H    0.20260   0.50980   0.12740   0.350
    H1AA    H    0.29740   0.49020   0.62740   0.350
    H1AA    H    0.25980   0.54740   0.37740   0.350
    H1AA    H    0.24020   0.45260   0.87740   0.350
    H1AA    H    0.20260   0.99020   0.12740   0.350
    H1AA    H    0.29740   0.00980   0.62740   0.350
    H1AA    H    0.25980   0.95260   0.37740   0.350
    H1AA    H    0.24020   0.04740   0.87740   0.350
    H1AA    H    0.29740   0.99020   0.37260   0.350
    H1AA    H    0.20260   0.00980   0.87260   0.350
    H1AA    H    0.24020   0.95260   0.12260   0.350
    H1AA    H    0.25980   0.04740   0.62260   0.350
    H1AA    H    0.79740   0.00980   0.87260   0.350
    H1AA    H    0.70260   0.99020   0.37260   0.350
    H1AA    H    0.74020   0.04740   0.62260   0.350
    H1AA    H    0.75980   0.95260   0.12260   0.350
    H1AA    H    0.70260   0.00980   0.62740   0.350
    H1AA    H    0.79740   0.99020   0.12740   0.350
    H1AA    H    0.75980   0.04740   0.87740   0.350
    H1AA    H    0.74020   0.95260   0.37740   0.350
    C3AA    C    0.77970   0.36610   0.10780   0.350
    C3AA    C    0.61610   0.47030   0.85780   0.350
    C3AA    C    0.88390   0.52970   0.35780   0.350
    C3AA    C    0.77970   0.63390   0.89220   0.350
    C3AA    C    0.72030   0.36610   0.39220   0.350
    C3AA    C    0.88390   0.47030   0.64220   0.350
    C3AA    C    0.61610   0.52970   0.14220   0.350
    C3AA    C    0.27970   0.36610   0.39220   0.350
    C3AA    C    0.22030   0.63390   0.89220   0.350
    C3AA    C    0.38390   0.52970   0.14220   0.350
    C3AA    C    0.11610   0.47030   0.64220   0.350
    C3AA    C    0.22030   0.36610   0.10780   0.350
    C3AA    C    0.27970   0.63390   0.60780   0.350
    C3AA    C    0.11610   0.52970   0.35780   0.350
    C3AA    C    0.38390   0.47030   0.85780   0.350
    C3AA    C    0.22030   0.13390   0.10780   0.350
    C3AA    C    0.27970   0.86610   0.60780   0.350
    C3AA    C    0.11610   0.97030   0.35780   0.350
    C3AA    C    0.38390   0.02970   0.85780   0.350
    C3AA    C    0.27970   0.13390   0.39220   0.350
    C3AA    C    0.22030   0.86610   0.89220   0.350
    C3AA    C    0.38390   0.97030   0.14220   0.350
    C3AA    C    0.11610   0.02970   0.64220   0.350
    C3AA    C    0.77970   0.86610   0.89220   0.350
    C3AA    C    0.72030   0.13390   0.39220   0.350
    C3AA    C    0.88390   0.02970   0.64220   0.350
    C3AA    C    0.61610   0.97030   0.14220   0.350
    C3AA    C    0.72030   0.86610   0.60780   0.350
    C3AA    C    0.77970   0.13390   0.10780   0.350
    C3AA    C    0.61610   0.02970   0.85780   0.350
    C3AA    C    0.88390   0.97030   0.35780   0.350
    C2AA    C    0.76920   0.41880   0.11990   0.350
    C2AA    C    0.66880   0.48080   0.86990   0.350
    C2AA    C    0.83120   0.51920   0.36990   0.350
    C2AA    C    0.76920   0.58120   0.88010   0.350
    C2AA    C    0.73080   0.41880   0.38010   0.350
    C2AA    C    0.83120   0.48080   0.63010   0.350
    C2AA    C    0.66880   0.51920   0.13010   0.350
    C2AA    C    0.26920   0.41880   0.38010   0.350
    C2AA    C    0.23080   0.58120   0.88010   0.350
    C2AA    C    0.33120   0.51920   0.13010   0.350
    C2AA    C    0.16880   0.48080   0.63010   0.350
    C2AA    C    0.23080   0.41880   0.11990   0.350
    C2AA    C    0.26920   0.58120   0.61990   0.350
    C2AA    C    0.16880   0.51920   0.36990   0.350
    C2AA    C    0.33120   0.48080   0.86990   0.350
    C2AA    C    0.23080   0.08120   0.11990   0.350
    C2AA    C    0.26920   0.91880   0.61990   0.350
    C2AA    C    0.16880   0.98080   0.36990   0.350
    C2AA    C    0.33120   0.01920   0.86990   0.350
    C2AA    C    0.26920   0.08120   0.38010   0.350
    C2AA    C    0.23080   0.91880   0.88010   0.350
    C2AA    C    0.33120   0.98080   0.13010   0.350
    C2AA    C    0.16880   0.01920   0.63010   0.350
    C2AA    C    0.76920   0.91880   0.88010   0.350
    C2AA    C    0.73080   0.08120   0.38010   0.350
    C2AA    C    0.83120   0.01920   0.63010   0.350
    C2AA    C    0.66880   0.98080   0.13010   0.350
    C2AA    C    0.73080   0.91880   0.61990   0.350
    C2AA    C    0.76920   0.08120   0.11990   0.350
    C2AA    C    0.66880   0.01920   0.86990   0.350
    C2AA    C    0.83120   0.98080   0.36990   0.350
    H2AA    H    0.73450   0.41730   0.12880   0.350
    H2AA    H    0.66730   0.51550   0.87880   0.350
    H2AA    H    0.83270   0.48450   0.37880   0.350
    H2AA    H    0.73450   0.58270   0.87120   0.350
    H2AA    H    0.76550   0.41730   0.37120   0.350
    H2AA    H    0.83270   0.51550   0.62120   0.350
    H2AA    H    0.66730   0.48450   0.12120   0.350
    H2AA    H    0.23450   0.41730   0.37120   0.350
    H2AA    H    0.26550   0.58270   0.87120   0.350
    H2AA    H    0.33270   0.48450   0.12120   0.350
    H2AA    H    0.16730   0.51550   0.62120   0.350
    H2AA    H    0.26550   0.41730   0.12880   0.350
    H2AA    H    0.23450   0.58270   0.62880   0.350
    H2AA    H    0.16730   0.48450   0.37880   0.350
    H2AA    H    0.33270   0.51550   0.87880   0.350
    H2AA    H    0.26550   0.08270   0.12880   0.350
    H2AA    H    0.23450   0.91730   0.62880   0.350
    H2AA    H    0.16730   0.01550   0.37880   0.350
    H2AA    H    0.33270   0.98450   0.87880   0.350
    H2AA    H    0.23450   0.08270   0.37120   0.350
    H2AA    H    0.26550   0.91730   0.87120   0.350
    H2AA    H    0.33270   0.01550   0.12120   0.350
    H2AA    H    0.16730   0.98450   0.62120   0.350
    H2AA    H    0.73450   0.91730   0.87120   0.350
    H2AA    H    0.76550   0.08270   0.37120   0.350
    H2AA    H    0.83270   0.98450   0.62120   0.350
    H2AA    H    0.66730   0.01550   0.12120   0.350
    H2AA    H    0.76550   0.91730   0.62880   0.350
    H2AA    H    0.73450   0.08270   0.12880   0.350
    H2AA    H    0.66730   0.98450   0.87880   0.350
    H2AA    H    0.83270   0.01550   0.37880   0.350
    C0AA    C    0.85960   0.47300   0.10730   0.350
    C0AA    C    0.72300   0.39040   0.85730   0.350
    C0AA    C    0.77700   0.60960   0.35730   0.350
    C0AA    C    0.85960   0.52700   0.89270   0.350
    C0AA    C    0.64040   0.47300   0.39270   0.350
    C0AA    C    0.77700   0.39040   0.64270   0.350
    C0AA    C    0.72300   0.60960   0.14270   0.350
    C0AA    C    0.35960   0.47300   0.39270   0.350
    C0AA    C    0.14040   0.52700   0.89270   0.350
    C0AA    C    0.27700   0.60960   0.14270   0.350
    C0AA    C    0.22300   0.39040   0.64270   0.350
    C0AA    C    0.14040   0.47300   0.10730   0.350
    C0AA    C    0.35960   0.52700   0.60730   0.350
    C0AA    C    0.22300   0.60960   0.35730   0.350
    C0AA    C    0.27700   0.39040   0.85730   0.350
    C0AA    C    0.14040   0.02700   0.10730   0.350
    C0AA    C    0.35960   0.97300   0.60730   0.350
    C0AA    C    0.22300   0.89040   0.35730   0.350
    C0AA    C    0.27700   0.10960   0.85730   0.350
    C0AA    C    0.35960   0.02700   0.39270   0.350
    C0AA    C    0.14040   0.97300   0.89270   0.350
    C0AA    C    0.27700   0.89040   0.14270   0.350
    C0AA    C    0.22300   0.10960   0.64270   0.350
    C0AA    C    0.85960   0.97300   0.89270   0.350
    C0AA    C    0.64040   0.02700   0.39270   0.350
    C0AA    C    0.77700   0.10960   0.64270   0.350
    C0AA    C    0.72300   0.89040   0.14270   0.350
    C0AA    C    0.64040   0.97300   0.60730   0.350
    C0AA    C    0.85960   0.02700   0.10730   0.350
    C0AA    C    0.72300   0.10960   0.85730   0.350
    C0AA    C    0.77700   0.89040   0.35730   0.350
    H17     H    0.90630   0.42370   0.08420   0.350
    H17     H    0.67370   0.34370   0.83420   0.350
    H17     H    0.82630   0.65630   0.33420   0.350
    H17     H    0.90630   0.57630   0.91580   0.350
    H17     H    0.59370   0.42370   0.41580   0.350
    H17     H    0.82630   0.34370   0.66580   0.350
    H17     H    0.67370   0.65630   0.16580   0.350
    H17     H    0.40630   0.42370   0.41580   0.350
    H17     H    0.09370   0.57630   0.91580   0.350
    H17     H    0.32630   0.65630   0.16580   0.350
    H17     H    0.17370   0.34370   0.66580   0.350
    H17     H    0.09370   0.42370   0.08420   0.350
    H17     H    0.40630   0.57630   0.58420   0.350
    H17     H    0.17370   0.65630   0.33420   0.350
    H17     H    0.32630   0.34370   0.83420   0.350
    H17     H    0.09370   0.07630   0.08420   0.350
    H17     H    0.40630   0.92370   0.58420   0.350
    H17     H    0.17370   0.84370   0.33420   0.350
    H17     H    0.32630   0.15630   0.83420   0.350
    H17     H    0.40630   0.07630   0.41580   0.350
    H17     H    0.09370   0.92370   0.91580   0.350
    H17     H    0.32630   0.84370   0.16580   0.350
    H17     H    0.17370   0.15630   0.66580   0.350
    H17     H    0.90630   0.92370   0.91580   0.350
    H17     H    0.59370   0.07630   0.41580   0.350
    H17     H    0.82630   0.15630   0.66580   0.350
    H17     H    0.67370   0.84370   0.16580   0.350
    H17     H    0.59370   0.92370   0.58420   0.350
    H17     H    0.90630   0.07630   0.08420   0.350
    H17     H    0.67370   0.15630   0.83420   0.350
    H17     H    0.82630   0.84370   0.33420   0.350
    C25     C    0.83370   0.36890   0.09440   0.350
    C25     C    0.61890   0.41630   0.84440   0.350
    C25     C    0.88110   0.58370   0.34440   0.350
    C25     C    0.83370   0.63110   0.90560   0.350
    C25     C    0.66630   0.36890   0.40560   0.350
    C25     C    0.88110   0.41630   0.65560   0.350
    C25     C    0.61890   0.58370   0.15560   0.350
    C25     C    0.33370   0.36890   0.40560   0.350
    C25     C    0.16630   0.63110   0.90560   0.350
    C25     C    0.38110   0.58370   0.15560   0.350
    C25     C    0.11890   0.41630   0.65560   0.350
    C25     C    0.16630   0.36890   0.09440   0.350
    C25     C    0.33370   0.63110   0.59440   0.350
    C25     C    0.11890   0.58370   0.34440   0.350
    C25     C    0.38110   0.41630   0.84440   0.350
    C25     C    0.16630   0.13110   0.09440   0.350
    C25     C    0.33370   0.86890   0.59440   0.350
    C25     C    0.11890   0.91630   0.34440   0.350
    C25     C    0.38110   0.08370   0.84440   0.350
    C25     C    0.33370   0.13110   0.40560   0.350
    C25     C    0.16630   0.86890   0.90560   0.350
    C25     C    0.38110   0.91630   0.15560   0.350
    C25     C    0.11890   0.08370   0.65560   0.350
    C25     C    0.83370   0.86890   0.90560   0.350
    C25     C    0.66630   0.13110   0.40560   0.350
    C25     C    0.88110   0.08370   0.65560   0.350
    C25     C    0.61890   0.91630   0.15560   0.350
    C25     C    0.66630   0.86890   0.59440   0.350
    C25     C    0.83370   0.13110   0.09440   0.350
    C25     C    0.61890   0.08370   0.84440   0.350
    C25     C    0.88110   0.91630   0.34440   0.350
    H25     H    0.84210   0.33350   0.08610   0.350
    H25     H    0.58350   0.40790   0.83610   0.350
    H25     H    0.91650   0.59210   0.33610   0.350
    H25     H    0.84210   0.66650   0.91390   0.350
    H25     H    0.65790   0.33350   0.41390   0.350
    H25     H    0.91650   0.40790   0.66390   0.350
    H25     H    0.58350   0.59210   0.16390   0.350
    H25     H    0.34210   0.33350   0.41390   0.350
    H25     H    0.15790   0.66650   0.91390   0.350
    H25     H    0.41650   0.59210   0.16390   0.350
    H25     H    0.08350   0.40790   0.66390   0.350
    H25     H    0.15790   0.33350   0.08610   0.350
    H25     H    0.34210   0.66650   0.58610   0.350
    H25     H    0.08350   0.59210   0.33610   0.350
    H25     H    0.41650   0.40790   0.83610   0.350
    H25     H    0.15790   0.16650   0.08610   0.350
    H25     H    0.34210   0.83350   0.58610   0.350
    H25     H    0.08350   0.90790   0.33610   0.350
    H25     H    0.41650   0.09210   0.83610   0.350
    H25     H    0.34210   0.16650   0.41390   0.350
    H25     H    0.15790   0.83350   0.91390   0.350
    H25     H    0.41650   0.90790   0.16390   0.350
    H25     H    0.08350   0.09210   0.66390   0.350
    H25     H    0.84210   0.83350   0.91390   0.350
    H25     H    0.65790   0.16650   0.41390   0.350
    H25     H    0.91650   0.09210   0.66390   0.350
    H25     H    0.58350   0.90790   0.16390   0.350
    H25     H    0.65790   0.83350   0.58610   0.350
    H25     H    0.84210   0.16650   0.08610   0.350
    H25     H    0.58350   0.09210   0.83610   0.350
    H25     H    0.91650   0.90790   0.33610   0.350
    O0AA    O    0.94530   0.53720   0.09280   0.350
    O0AA    O    0.78720   0.30470   0.84280   0.350
    O0AA    O    0.71280   0.69530   0.34280   0.350
    O0AA    O    0.94530   0.46280   0.90720   0.350
    O0AA    O    0.55470   0.53720   0.40720   0.350
    O0AA    O    0.71280   0.30470   0.65720   0.350
    O0AA    O    0.78720   0.69530   0.15720   0.350
    O0AA    O    0.44530   0.53720   0.40720   0.350
    O0AA    O    0.05470   0.46280   0.90720   0.350
    O0AA    O    0.21280   0.69530   0.15720   0.350
    O0AA    O    0.28720   0.30470   0.65720   0.350
    O0AA    O    0.05470   0.53720   0.09280   0.350
    O0AA    O    0.44530   0.46280   0.59280   0.350
    O0AA    O    0.28720   0.69530   0.34280   0.350
    O0AA    O    0.21280   0.30470   0.84280   0.350
    O0AA    O    0.05470   0.96280   0.09280   0.350
    O0AA    O    0.44530   0.03720   0.59280   0.350
    O0AA    O    0.28720   0.80470   0.34280   0.350
    O0AA    O    0.21280   0.19530   0.84280   0.350
    O0AA    O    0.44530   0.96280   0.40720   0.350
    O0AA    O    0.05470   0.03720   0.90720   0.350
    O0AA    O    0.21280   0.80470   0.15720   0.350
    O0AA    O    0.28720   0.19530   0.65720   0.350
    O0AA    O    0.94530   0.03720   0.90720   0.350
    O0AA    O    0.55470   0.96280   0.40720   0.350
    O0AA    O    0.71280   0.19530   0.65720   0.350
    O0AA    O    0.78720   0.80470   0.15720   0.350
    O0AA    O    0.55470   0.03720   0.59280   0.350
    O0AA    O    0.94530   0.96280   0.09280   0.350
    O0AA    O    0.78720   0.19530   0.84280   0.350
    O0AA    O    0.71280   0.80470   0.34280   0.350
    C19     C    0.90830   0.52900   0.10690   0.350
    C19     C    0.77900   0.34170   0.85690   0.350
    C19     C    0.72100   0.65830   0.35690   0.350
    C19     C    0.90830   0.47100   0.89310   0.350
    C19     C    0.59170   0.52900   0.39310   0.350
    C19     C    0.72100   0.34170   0.64310   0.350
    C19     C    0.77900   0.65830   0.14310   0.350
    C19     C    0.40830   0.52900   0.39310   0.350
    C19     C    0.09170   0.47100   0.89310   0.350
    C19     C    0.22100   0.65830   0.14310   0.350
    C19     C    0.27900   0.34170   0.64310   0.350
    C19     C    0.09170   0.52900   0.10690   0.350
    C19     C    0.40830   0.47100   0.60690   0.350
    C19     C    0.27900   0.65830   0.35690   0.350
    C19     C    0.22100   0.34170   0.85690   0.350
    C19     C    0.09170   0.97100   0.10690   0.350
    C19     C    0.40830   0.02900   0.60690   0.350
    C19     C    0.27900   0.84170   0.35690   0.350
    C19     C    0.22100   0.15830   0.85690   0.350
    C19     C    0.40830   0.97100   0.39310   0.350
    C19     C    0.09170   0.02900   0.89310   0.350
    C19     C    0.22100   0.84170   0.14310   0.350
    C19     C    0.27900   0.15830   0.64310   0.350
    C19     C    0.90830   0.02900   0.89310   0.350
    C19     C    0.59170   0.97100   0.39310   0.350
    C19     C    0.72100   0.15830   0.64310   0.350
    C19     C    0.77900   0.84170   0.14310   0.350
    C19     C    0.59170   0.02900   0.60690   0.350
    C19     C    0.90830   0.97100   0.10690   0.350
    C19     C    0.77900   0.15830   0.85690   0.350
    C19     C    0.72100   0.84170   0.35690   0.350
    N4      N    0.77660   0.25000   0.10870   0.350
    N4      N    0.50000   0.47340   0.85870   0.350
    N4      N    0.00000   0.52660   0.35870   0.350
    N4      N    0.77660   0.75000   0.89130   0.350
    N4      N    0.72340   0.25000   0.39130   0.350
    N4      N    0.00000   0.47340   0.64130   0.350
    N4      N    0.50000   0.52660   0.14130   0.350
    N4      N    0.27660   0.25000   0.39130   0.350
    N4      N    0.22340   0.75000   0.89130   0.350
    N4      N    0.22340   0.25000   0.10870   0.350
    N4      N    0.27660   0.75000   0.60870   0.350
    N4      N    0.00000   0.97340   0.35870   0.350
    N4      N    0.50000   0.02660   0.85870   0.350
    N4      N    0.50000   0.97340   0.14130   0.350
    N4      N    0.00000   0.02660   0.64130   0.350
    C6AA    C    0.64220   0.25000   0.11270   0.350
    C6AA    C    0.50000   0.60780   0.86270   0.350
    C6AA    C    0.00000   0.39220   0.36270   0.350
    C6AA    C    0.64220   0.75000   0.88730   0.350
    C6AA    C    0.85780   0.25000   0.38730   0.350
    C6AA    C    0.00000   0.60780   0.63730   0.350
    C6AA    C    0.50000   0.39220   0.13730   0.350
    C6AA    C    0.14220   0.25000   0.38730   0.350
    C6AA    C    0.35780   0.75000   0.88730   0.350
    C6AA    C    0.35780   0.25000   0.11270   0.350
    C6AA    C    0.14220   0.75000   0.61270   0.350
    C6AA    C    0.00000   0.10780   0.36270   0.350
    C6AA    C    0.50000   0.89220   0.86270   0.350
    C6AA    C    0.50000   0.10780   0.13730   0.350
    C6AA    C    0.00000   0.89220   0.63730   0.350
    C5AA    C    0.67560   0.31150   0.11140   0.350
    C5AA    C    0.56150   0.57440   0.86140   0.350
    C5AA    C    0.93850   0.42560   0.36140   0.350
    C5AA    C    0.67560   0.68850   0.88860   0.350
    C5AA    C    0.82440   0.31150   0.38860   0.350
    C5AA    C    0.93850   0.57440   0.63860   0.350
    C5AA    C    0.56150   0.42560   0.13860   0.350
    C5AA    C    0.17560   0.31150   0.38860   0.350
    C5AA    C    0.32440   0.68850   0.88860   0.350
    C5AA    C    0.43850   0.42560   0.13860   0.350
    C5AA    C    0.06150   0.57440   0.63860   0.350
    C5AA    C    0.32440   0.31150   0.11140   0.350
    C5AA    C    0.17560   0.68850   0.61140   0.350
    C5AA    C    0.06150   0.42560   0.36140   0.350
    C5AA    C    0.43850   0.57440   0.86140   0.350
    C5AA    C    0.32440   0.18850   0.11140   0.350
    C5AA    C    0.17560   0.81150   0.61140   0.350
    C5AA    C    0.06150   0.07440   0.36140   0.350
    C5AA    C    0.43850   0.92560   0.86140   0.350
    C5AA    C    0.17560   0.18850   0.38860   0.350
    C5AA    C    0.32440   0.81150   0.88860   0.350
    C5AA    C    0.43850   0.07440   0.13860   0.350
    C5AA    C    0.06150   0.92560   0.63860   0.350
    C5AA    C    0.67560   0.81150   0.88860   0.350
    C5AA    C    0.82440   0.18850   0.38860   0.350
    C5AA    C    0.93850   0.92560   0.63860   0.350
    C5AA    C    0.56150   0.07440   0.13860   0.350
    C5AA    C    0.82440   0.81150   0.61140   0.350
    C5AA    C    0.67560   0.18850   0.11140   0.350
    C5AA    C    0.56150   0.92560   0.86140   0.350
    C5AA    C    0.93850   0.07440   0.36140   0.350
    H5AA    H    0.65400   0.35120   0.11200   0.350
    H5AA    H    0.60120   0.59600   0.86200   0.350
    H5AA    H    0.89880   0.40400   0.36200   0.350
    H5AA    H    0.65400   0.64880   0.88800   0.350
    H5AA    H    0.84600   0.35120   0.38800   0.350
    H5AA    H    0.89880   0.59600   0.63800   0.350
    H5AA    H    0.60120   0.40400   0.13800   0.350
    H5AA    H    0.15400   0.35120   0.38800   0.350
    H5AA    H    0.34600   0.64880   0.88800   0.350
    H5AA    H    0.39880   0.40400   0.13800   0.350
    H5AA    H    0.10120   0.59600   0.63800   0.350
    H5AA    H    0.34600   0.35120   0.11200   0.350
    H5AA    H    0.15400   0.64880   0.61200   0.350
    H5AA    H    0.10120   0.40400   0.36200   0.350
    H5AA    H    0.39880   0.59600   0.86200   0.350
    H5AA    H    0.34600   0.14880   0.11200   0.350
    H5AA    H    0.15400   0.85120   0.61200   0.350
    H5AA    H    0.10120   0.09600   0.36200   0.350
    H5AA    H    0.39880   0.90400   0.86200   0.350
    H5AA    H    0.15400   0.14880   0.38800   0.350
    H5AA    H    0.34600   0.85120   0.88800   0.350
    H5AA    H    0.39880   0.09600   0.13800   0.350
    H5AA    H    0.10120   0.90400   0.63800   0.350
    H5AA    H    0.65400   0.85120   0.88800   0.350
    H5AA    H    0.84600   0.14880   0.38800   0.350
    H5AA    H    0.89880   0.90400   0.63800   0.350
    H5AA    H    0.60120   0.09600   0.13800   0.350
    H5AA    H    0.84600   0.85120   0.61200   0.350
    H5AA    H    0.65400   0.14880   0.11200   0.350
    H5AA    H    0.60120   0.90400   0.86200   0.350
    H5AA    H    0.89880   0.09600   0.36200   0.350
    C4AA    C    0.74170   0.30670   0.10930   0.350
    C4AA    C    0.55670   0.50830   0.85930   0.350
    C4AA    C    0.94330   0.49170   0.35930   0.350
    C4AA    C    0.74170   0.69330   0.89070   0.350
    C4AA    C    0.75830   0.30670   0.39070   0.350
    C4AA    C    0.94330   0.50830   0.64070   0.350
    C4AA    C    0.55670   0.49170   0.14070   0.350
    C4AA    C    0.24170   0.30670   0.39070   0.350
    C4AA    C    0.25830   0.69330   0.89070   0.350
    C4AA    C    0.44330   0.49170   0.14070   0.350
    C4AA    C    0.05670   0.50830   0.64070   0.350
    C4AA    C    0.25830   0.30670   0.10930   0.350
    C4AA    C    0.24170   0.69330   0.60930   0.350
    C4AA    C    0.05670   0.49170   0.35930   0.350
    C4AA    C    0.44330   0.50830   0.85930   0.350
    C4AA    C    0.25830   0.19330   0.10930   0.350
    C4AA    C    0.24170   0.80670   0.60930   0.350
    C4AA    C    0.05670   0.00830   0.35930   0.350
    C4AA    C    0.44330   0.99170   0.85930   0.350
    C4AA    C    0.24170   0.19330   0.39070   0.350
    C4AA    C    0.25830   0.80670   0.89070   0.350
    C4AA    C    0.44330   0.00830   0.14070   0.350
    C4AA    C    0.05670   0.99170   0.64070   0.350
    C4AA    C    0.74170   0.80670   0.89070   0.350
    C4AA    C    0.75830   0.19330   0.39070   0.350
    C4AA    C    0.94330   0.99170   0.64070   0.350
    C4AA    C    0.55670   0.00830   0.14070   0.350
    C4AA    C    0.75830   0.80670   0.60930   0.350
    C4AA    C    0.74170   0.19330   0.10930   0.350
    C4AA    C    0.55670   0.99170   0.85930   0.350
    C4AA    C    0.94330   0.00830   0.35930   0.350
    C15     C    0.56660   0.25000   0.11390   0.350
    C15     C    0.50000   0.68340   0.86390   0.350
    C15     C    0.00000   0.31660   0.36390   0.350
    C15     C    0.56660   0.75000   0.88610   0.350
    C15     C    0.93340   0.25000   0.38610   0.350
    C15     C    0.00000   0.68340   0.63610   0.350
    C15     C    0.50000   0.31660   0.13610   0.350
    C15     C    0.06660   0.25000   0.38610   0.350
    C15     C    0.43340   0.75000   0.88610   0.350
    C15     C    0.43340   0.25000   0.11390   0.350
    C15     C    0.06660   0.75000   0.61390   0.350
    C15     C    0.00000   0.18340   0.36390   0.350
    C15     C    0.50000   0.81660   0.86390   0.350
    C15     C    0.50000   0.18340   0.13610   0.350
    C15     C    0.00000   0.81660   0.63610   0.350
    C7AA    C    0.53460   0.30010   0.11390   0.350
    C7AA    C    0.55010   0.71540   0.86390   0.350
    C7AA    C    0.94990   0.28460   0.36390   0.350
    C7AA    C    0.03460   0.30010   0.38610   0.350
    C7AA    C    0.46540   0.69990   0.88610   0.350
    C7AA    C    0.44990   0.28460   0.13610   0.350
    C7AA    C    0.05010   0.71540   0.63610   0.350
    C7AA    C    0.46540   0.19990   0.11390   0.350
    C7AA    C    0.03460   0.80010   0.61390   0.350
    C7AA    C    0.05010   0.21540   0.36390   0.350
    C7AA    C    0.44990   0.78460   0.86390   0.350
    C7AA    C    0.53460   0.80010   0.88610   0.350
    C7AA    C    0.96540   0.19990   0.38610   0.350
    C7AA    C    0.94990   0.78460   0.63610   0.350
    C7AA    C    0.55010   0.21540   0.13610   0.350
