# CIF file generated by openbabel 2.4.1, see http://openbabel.sf.net
data_I
_chemical_name_common 'MFM-601'
_cell_length_a 20.7442
_cell_length_b 20.7442
_cell_length_c 66.4456
_cell_angle_alpha 90
_cell_angle_beta 90
_cell_angle_gamma 90
_space_group_name_H-M_alt 'P 1'
_space_group_name_Hall 'P 1'
loop_
    _symmetry_equiv_pos_as_xyz
    x,y,z
loop_
    _atom_site_label
    _atom_site_type_symbol
    _atom_site_fract_x
    _atom_site_fract_y
    _atom_site_fract_z
    _atom_site_occupancy
    C7AA    C    0.06360   0.50000   0.00000   1.000
    C8AA    C    0.03180   0.45070   0.00770   1.000
    C6AA    C    0.14040   0.50000   0.00000   1.000
    C5      C    0.17530   0.47030   0.01640   1.000
    C5AA    C    0.24230   0.47260   0.01515   1.000
    C4      C    0.28540   0.44100   0.03250   1.000
    C3      C    0.33700   0.39960   0.02750   1.000
    C2      C    0.37520   0.37200   0.04280   1.000
    C3AA    C    0.36170   0.38600   0.06330   1.000
    C14     C    0.31010   0.42700   0.06830   1.000
    C0AA    C    0.27190   0.45500   0.05300   1.000
    C7      C    0.39690   0.36000   0.07750   1.000
    O2AA    O    0.44600   0.31700   0.07250   1.000
    O6      O    0.38540   0.37600   0.09760   1.000
    H8AA    H    0.05430   0.41580   0.01310   1.000
    H5      H    0.15270   0.45110   0.02700   1.000
    H3      H    0.34590   0.39050   0.01400   1.000
    H2      H    0.40930   0.34400   0.03950   1.000
    H14     H    0.30120   0.43600   0.08180   1.000
    H0AA    H    0.23780   0.48200   0.05630   1.000
    N1b     N    0.27510   0.50000   0.00000   1.000
    ZR1     Zr   0.50000   0.25000   0.08925   1.000
    ZR2     Zr   0.41608   0.33392   0.12500   1.000
    O1      O    0.41010   0.25000   0.10360   1.000
    O2      O    0.50000   0.34170   0.10670   1.000
    C7AA    C    0.43640   0.50000   0.50000   1.000
    C7AA    C    0.75000   0.81360   0.25000   1.000
    C7AA    C    0.75000   0.18640   0.75000   1.000
    C7AA    C    0.93640   0.50000   0.00000   1.000
    C7AA    C    0.56360   0.50000   0.50000   1.000
    C7AA    C    0.25000   0.18640   0.75000   1.000
    C7AA    C    0.25000   0.81360   0.25000   1.000
    C7AA    C    0.56360   0.00000   0.50000   1.000
    C7AA    C    0.93640   0.00000   0.00000   1.000
    C7AA    C    0.25000   0.31360   0.75000   1.000
    C7AA    C    0.25000   0.68640   0.25000   1.000
    C7AA    C    0.43640   0.00000   0.50000   1.000
    C7AA    C    0.06360   0.00000   0.00000   1.000
    C7AA    C    0.75000   0.68640   0.25000   1.000
    C7AA    C    0.75000   0.31360   0.75000   1.000
    C8AA    C    0.46820   0.54930   0.50770   1.000
    C8AA    C    0.79930   0.78180   0.25770   1.000
    C8AA    C    0.70070   0.21820   0.75770   1.000
    C8AA    C    0.46820   0.45070   0.49230   1.000
    C8AA    C    0.03180   0.54930   0.99230   1.000
    C8AA    C    0.70070   0.78180   0.24230   1.000
    C8AA    C    0.79930   0.21820   0.74230   1.000
    C8AA    C    0.96820   0.54930   0.99230   1.000
    C8AA    C    0.53180   0.45070   0.49230   1.000
    C8AA    C    0.20070   0.21820   0.74230   1.000
    C8AA    C    0.29930   0.78180   0.24230   1.000
    C8AA    C    0.53180   0.54930   0.50770   1.000
    C8AA    C    0.96820   0.45070   0.00770   1.000
    C8AA    C    0.29930   0.21820   0.75770   1.000
    C8AA    C    0.20070   0.78180   0.25770   1.000
    C8AA    C    0.53180   0.95070   0.50770   1.000
    C8AA    C    0.96820   0.04930   0.00770   1.000
    C8AA    C    0.29930   0.28180   0.75770   1.000
    C8AA    C    0.20070   0.71820   0.25770   1.000
    C8AA    C    0.96820   0.95070   0.99230   1.000
    C8AA    C    0.53180   0.04930   0.49230   1.000
    C8AA    C    0.20070   0.28180   0.74230   1.000
    C8AA    C    0.29930   0.71820   0.24230   1.000
    C8AA    C    0.46820   0.04930   0.49230   1.000
    C8AA    C    0.03180   0.95070   0.99230   1.000
    C8AA    C    0.70070   0.71820   0.24230   1.000
    C8AA    C    0.79930   0.28180   0.74230   1.000
    C8AA    C    0.03180   0.04930   0.00770   1.000
    C8AA    C    0.46820   0.95070   0.50770   1.000
    C8AA    C    0.79930   0.71820   0.25770   1.000
    C8AA    C    0.70070   0.28180   0.75770   1.000
    C6AA    C    0.35960   0.50000   0.50000   1.000
    C6AA    C    0.75000   0.89040   0.25000   1.000
    C6AA    C    0.75000   0.10960   0.75000   1.000
    C6AA    C    0.85960   0.50000   0.00000   1.000
    C6AA    C    0.64040   0.50000   0.50000   1.000
    C6AA    C    0.25000   0.10960   0.75000   1.000
    C6AA    C    0.25000   0.89040   0.25000   1.000
    C6AA    C    0.64040   0.00000   0.50000   1.000
    C6AA    C    0.85960   0.00000   0.00000   1.000
    C6AA    C    0.25000   0.39040   0.75000   1.000
    C6AA    C    0.25000   0.60960   0.25000   1.000
    C6AA    C    0.35960   0.00000   0.50000   1.000
    C6AA    C    0.14040   0.00000   0.00000   1.000
    C6AA    C    0.75000   0.60960   0.25000   1.000
    C6AA    C    0.75000   0.39040   0.75000   1.000
    C5      C    0.32470   0.52970   0.51640   1.000
    C5      C    0.77970   0.92530   0.26640   1.000
    C5      C    0.72030   0.07470   0.76640   1.000
    C5      C    0.32470   0.47030   0.48360   1.000
    C5      C    0.17530   0.52970   0.98360   1.000
    C5      C    0.72030   0.92530   0.23360   1.000
    C5      C    0.77970   0.07470   0.73360   1.000
    C5      C    0.82470   0.52970   0.98360   1.000
    C5      C    0.67530   0.47030   0.48360   1.000
    C5      C    0.22030   0.07470   0.73360   1.000
    C5      C    0.27970   0.92530   0.23360   1.000
    C5      C    0.67530   0.52970   0.51640   1.000
    C5      C    0.82470   0.47030   0.01640   1.000
    C5      C    0.27970   0.07470   0.76640   1.000
    C5      C    0.22030   0.92530   0.26640   1.000
    C5      C    0.67530   0.97030   0.51640   1.000
    C5      C    0.82470   0.02970   0.01640   1.000
    C5      C    0.27970   0.42530   0.76640   1.000
    C5      C    0.22030   0.57470   0.26640   1.000
    C5      C    0.82470   0.97030   0.98360   1.000
    C5      C    0.67530   0.02970   0.48360   1.000
    C5      C    0.22030   0.42530   0.73360   1.000
    C5      C    0.27970   0.57470   0.23360   1.000
    C5      C    0.32470   0.02970   0.48360   1.000
    C5      C    0.17530   0.97030   0.98360   1.000
    C5      C    0.72030   0.57470   0.23360   1.000
    C5      C    0.77970   0.42530   0.73360   1.000
    C5      C    0.17530   0.02970   0.01640   1.000
    C5      C    0.32470   0.97030   0.51640   1.000
    C5      C    0.77970   0.57470   0.26640   1.000
    C5      C    0.72030   0.42530   0.76640   1.000
    C5AA    C    0.25770   0.52740   0.51515   1.000
    C5AA    C    0.77740   0.99230   0.26515   1.000
    C5AA    C    0.72260   0.00770   0.76515   1.000
    C5AA    C    0.25770   0.47260   0.48485   1.000
    C5AA    C    0.24230   0.52740   0.98485   1.000
    C5AA    C    0.72260   0.99230   0.23485   1.000
    C5AA    C    0.77740   0.00770   0.73485   1.000
    C5AA    C    0.75770   0.52740   0.98485   1.000
    C5AA    C    0.74230   0.47260   0.48485   1.000
    C5AA    C    0.22260   0.00770   0.73485   1.000
    C5AA    C    0.27740   0.99230   0.23485   1.000
    C5AA    C    0.74230   0.52740   0.51515   1.000
    C5AA    C    0.75770   0.47260   0.01515   1.000
    C5AA    C    0.27740   0.00770   0.76515   1.000
    C5AA    C    0.22260   0.99230   0.26515   1.000
    C5AA    C    0.74230   0.97260   0.51515   1.000
    C5AA    C    0.75770   0.02740   0.01515   1.000
    C5AA    C    0.27740   0.49230   0.76515   1.000
    C5AA    C    0.22260   0.50770   0.26515   1.000
    C5AA    C    0.75770   0.97260   0.98485   1.000
    C5AA    C    0.74230   0.02740   0.48485   1.000
    C5AA    C    0.22260   0.49230   0.73485   1.000
    C5AA    C    0.27740   0.50770   0.23485   1.000
    C5AA    C    0.25770   0.02740   0.48485   1.000
    C5AA    C    0.24230   0.97260   0.98485   1.000
    C5AA    C    0.72260   0.50770   0.23485   1.000
    C5AA    C    0.77740   0.49230   0.73485   1.000
    C5AA    C    0.24230   0.02740   0.01515   1.000
    C5AA    C    0.25770   0.97260   0.51515   1.000
    C5AA    C    0.77740   0.50770   0.26515   1.000
    C5AA    C    0.72260   0.49230   0.76515   1.000
    C4      C    0.21460   0.55900   0.53250   1.000
    C4      C    0.80900   0.03540   0.28250   1.000
    C4      C    0.69100   0.96460   0.78250   1.000
    C4      C    0.21460   0.44100   0.46750   1.000
    C4      C    0.28540   0.55900   0.96750   1.000
    C4      C    0.69100   0.03540   0.21750   1.000
    C4      C    0.80900   0.96460   0.71750   1.000
    C4      C    0.71460   0.55900   0.96750   1.000
    C4      C    0.78540   0.44100   0.46750   1.000
    C4      C    0.19100   0.96460   0.71750   1.000
    C4      C    0.30900   0.03540   0.21750   1.000
    C4      C    0.78540   0.55900   0.53250   1.000
    C4      C    0.71460   0.44100   0.03250   1.000
    C4      C    0.30900   0.96460   0.78250   1.000
    C4      C    0.19100   0.03540   0.28250   1.000
    C4      C    0.78540   0.94100   0.53250   1.000
    C4      C    0.71460   0.05900   0.03250   1.000
    C4      C    0.30900   0.53540   0.78250   1.000
    C4      C    0.19100   0.46460   0.28250   1.000
    C4      C    0.71460   0.94100   0.96750   1.000
    C4      C    0.78540   0.05900   0.46750   1.000
    C4      C    0.19100   0.53540   0.71750   1.000
    C4      C    0.30900   0.46460   0.21750   1.000
    C4      C    0.21460   0.05900   0.46750   1.000
    C4      C    0.28540   0.94100   0.96750   1.000
    C4      C    0.69100   0.46460   0.21750   1.000
    C4      C    0.80900   0.53540   0.71750   1.000
    C4      C    0.28540   0.05900   0.03250   1.000
    C4      C    0.21460   0.94100   0.53250   1.000
    C4      C    0.80900   0.46460   0.28250   1.000
    C4      C    0.69100   0.53540   0.78250   1.000
    C3      C    0.16300   0.60040   0.52750   1.000
    C3      C    0.85040   0.08700   0.27750   1.000
    C3      C    0.64960   0.91300   0.77750   1.000
    C3      C    0.16300   0.39960   0.47250   1.000
    C3      C    0.33700   0.60040   0.97250   1.000
    C3      C    0.64960   0.08700   0.22250   1.000
    C3      C    0.85040   0.91300   0.72250   1.000
    C3      C    0.66300   0.60040   0.97250   1.000
    C3      C    0.83700   0.39960   0.47250   1.000
    C3      C    0.14960   0.91300   0.72250   1.000
    C3      C    0.35040   0.08700   0.22250   1.000
    C3      C    0.83700   0.60040   0.52750   1.000
    C3      C    0.66300   0.39960   0.02750   1.000
    C3      C    0.35040   0.91300   0.77750   1.000
    C3      C    0.14960   0.08700   0.27750   1.000
    C3      C    0.83700   0.89960   0.52750   1.000
    C3      C    0.66300   0.10040   0.02750   1.000
    C3      C    0.35040   0.58700   0.77750   1.000
    C3      C    0.14960   0.41300   0.27750   1.000
    C3      C    0.66300   0.89960   0.97250   1.000
    C3      C    0.83700   0.10040   0.47250   1.000
    C3      C    0.14960   0.58700   0.72250   1.000
    C3      C    0.35040   0.41300   0.22250   1.000
    C3      C    0.16300   0.10040   0.47250   1.000
    C3      C    0.33700   0.89960   0.97250   1.000
    C3      C    0.64960   0.41300   0.22250   1.000
    C3      C    0.85040   0.58700   0.72250   1.000
    C3      C    0.33700   0.10040   0.02750   1.000
    C3      C    0.16300   0.89960   0.52750   1.000
    C3      C    0.85040   0.41300   0.27750   1.000
    C3      C    0.64960   0.58700   0.77750   1.000
    C2      C    0.12480   0.62800   0.54280   1.000
    C2      C    0.87800   0.12520   0.29280   1.000
    C2      C    0.62200   0.87480   0.79280   1.000
    C2      C    0.12480   0.37200   0.45720   1.000
    C2      C    0.37520   0.62800   0.95720   1.000
    C2      C    0.62200   0.12520   0.20720   1.000
    C2      C    0.87800   0.87480   0.70720   1.000
    C2      C    0.62480   0.62800   0.95720   1.000
    C2      C    0.87520   0.37200   0.45720   1.000
    C2      C    0.12200   0.87480   0.70720   1.000
    C2      C    0.37800   0.12520   0.20720   1.000
    C2      C    0.87520   0.62800   0.54280   1.000
    C2      C    0.62480   0.37200   0.04280   1.000
    C2      C    0.37800   0.87480   0.79280   1.000
    C2      C    0.12200   0.12520   0.29280   1.000
    C2      C    0.87520   0.87200   0.54280   1.000
    C2      C    0.62480   0.12800   0.04280   1.000
    C2      C    0.37800   0.62520   0.79280   1.000
    C2      C    0.12200   0.37480   0.29280   1.000
    C2      C    0.62480   0.87200   0.95720   1.000
    C2      C    0.87520   0.12800   0.45720   1.000
    C2      C    0.12200   0.62520   0.70720   1.000
    C2      C    0.37800   0.37480   0.20720   1.000
    C2      C    0.12480   0.12800   0.45720   1.000
    C2      C    0.37520   0.87200   0.95720   1.000
    C2      C    0.62200   0.37480   0.20720   1.000
    C2      C    0.87800   0.62520   0.70720   1.000
    C2      C    0.37520   0.12800   0.04280   1.000
    C2      C    0.12480   0.87200   0.54280   1.000
    C2      C    0.87800   0.37480   0.29280   1.000
    C2      C    0.62200   0.62520   0.79280   1.000
    C3AA    C    0.13830   0.61400   0.56330   1.000
    C3AA    C    0.86400   0.11170   0.31330   1.000
    C3AA    C    0.63600   0.88830   0.81330   1.000
    C3AA    C    0.13830   0.38600   0.43670   1.000
    C3AA    C    0.36170   0.61400   0.93670   1.000
    C3AA    C    0.63600   0.11170   0.18670   1.000
    C3AA    C    0.86400   0.88830   0.68670   1.000
    C3AA    C    0.63830   0.61400   0.93670   1.000
    C3AA    C    0.86170   0.38600   0.43670   1.000
    C3AA    C    0.13600   0.88830   0.68670   1.000
    C3AA    C    0.36400   0.11170   0.18670   1.000
    C3AA    C    0.86170   0.61400   0.56330   1.000
    C3AA    C    0.63830   0.38600   0.06330   1.000
    C3AA    C    0.36400   0.88830   0.81330   1.000
    C3AA    C    0.13600   0.11170   0.31330   1.000
    C3AA    C    0.86170   0.88600   0.56330   1.000
    C3AA    C    0.63830   0.11400   0.06330   1.000
    C3AA    C    0.36400   0.61170   0.81330   1.000
    C3AA    C    0.13600   0.38830   0.31330   1.000
    C3AA    C    0.63830   0.88600   0.93670   1.000
    C3AA    C    0.86170   0.11400   0.43670   1.000
    C3AA    C    0.13600   0.61170   0.68670   1.000
    C3AA    C    0.36400   0.38830   0.18670   1.000
    C3AA    C    0.13830   0.11400   0.43670   1.000
    C3AA    C    0.36170   0.88600   0.93670   1.000
    C3AA    C    0.63600   0.38830   0.18670   1.000
    C3AA    C    0.86400   0.61170   0.68670   1.000
    C3AA    C    0.36170   0.11400   0.06330   1.000
    C3AA    C    0.13830   0.88600   0.56330   1.000
    C3AA    C    0.86400   0.38830   0.31330   1.000
    C3AA    C    0.63600   0.61170   0.81330   1.000
    C14     C    0.18990   0.57300   0.56830   1.000
    C14     C    0.82300   0.06010   0.31830   1.000
    C14     C    0.67700   0.93990   0.81830   1.000
    C14     C    0.18990   0.42700   0.43170   1.000
    C14     C    0.31010   0.57300   0.93170   1.000
    C14     C    0.67700   0.06010   0.18170   1.000
    C14     C    0.82300   0.93990   0.68170   1.000
    C14     C    0.68990   0.57300   0.93170   1.000
    C14     C    0.81010   0.42700   0.43170   1.000
    C14     C    0.17700   0.93990   0.68170   1.000
    C14     C    0.32300   0.06010   0.18170   1.000
    C14     C    0.81010   0.57300   0.56830   1.000
    C14     C    0.68990   0.42700   0.06830   1.000
    C14     C    0.32300   0.93990   0.81830   1.000
    C14     C    0.17700   0.06010   0.31830   1.000
    C14     C    0.81010   0.92700   0.56830   1.000
    C14     C    0.68990   0.07300   0.06830   1.000
    C14     C    0.32300   0.56010   0.81830   1.000
    C14     C    0.17700   0.43990   0.31830   1.000
    C14     C    0.68990   0.92700   0.93170   1.000
    C14     C    0.81010   0.07300   0.43170   1.000
    C14     C    0.17700   0.56010   0.68170   1.000
    C14     C    0.32300   0.43990   0.18170   1.000
    C14     C    0.18990   0.07300   0.43170   1.000
    C14     C    0.31010   0.92700   0.93170   1.000
    C14     C    0.67700   0.43990   0.18170   1.000
    C14     C    0.82300   0.56010   0.68170   1.000
    C14     C    0.31010   0.07300   0.06830   1.000
    C14     C    0.18990   0.92700   0.56830   1.000
    C14     C    0.82300   0.43990   0.31830   1.000
    C14     C    0.67700   0.56010   0.81830   1.000
    C0AA    C    0.22810   0.54500   0.55300   1.000
    C0AA    C    0.79500   0.02190   0.30300   1.000
    C0AA    C    0.70500   0.97810   0.80300   1.000
    C0AA    C    0.22810   0.45500   0.44700   1.000
    C0AA    C    0.27190   0.54500   0.94700   1.000
    C0AA    C    0.70500   0.02190   0.19700   1.000
    C0AA    C    0.79500   0.97810   0.69700   1.000
    C0AA    C    0.72810   0.54500   0.94700   1.000
    C0AA    C    0.77190   0.45500   0.44700   1.000
    C0AA    C    0.20500   0.97810   0.69700   1.000
    C0AA    C    0.29500   0.02190   0.19700   1.000
    C0AA    C    0.77190   0.54500   0.55300   1.000
    C0AA    C    0.72810   0.45500   0.05300   1.000
    C0AA    C    0.29500   0.97810   0.80300   1.000
    C0AA    C    0.20500   0.02190   0.30300   1.000
    C0AA    C    0.77190   0.95500   0.55300   1.000
    C0AA    C    0.72810   0.04500   0.05300   1.000
    C0AA    C    0.29500   0.52190   0.80300   1.000
    C0AA    C    0.20500   0.47810   0.30300   1.000
    C0AA    C    0.72810   0.95500   0.94700   1.000
    C0AA    C    0.77190   0.04500   0.44700   1.000
    C0AA    C    0.20500   0.52190   0.69700   1.000
    C0AA    C    0.29500   0.47810   0.19700   1.000
    C0AA    C    0.22810   0.04500   0.44700   1.000
    C0AA    C    0.27190   0.95500   0.94700   1.000
    C0AA    C    0.70500   0.47810   0.19700   1.000
    C0AA    C    0.79500   0.52190   0.69700   1.000
    C0AA    C    0.27190   0.04500   0.05300   1.000
    C0AA    C    0.22810   0.95500   0.55300   1.000
    C0AA    C    0.79500   0.47810   0.30300   1.000
    C0AA    C    0.70500   0.52190   0.80300   1.000
    C7      C    0.10310   0.64000   0.57750   1.000
    C7      C    0.89000   0.14690   0.32750   1.000
    C7      C    0.61000   0.85310   0.82750   1.000
    C7      C    0.10310   0.36000   0.42250   1.000
    C7      C    0.39690   0.64000   0.92250   1.000
    C7      C    0.61000   0.14690   0.17250   1.000
    C7      C    0.89000   0.85310   0.67250   1.000
    C7      C    0.60310   0.64000   0.92250   1.000
    C7      C    0.89690   0.36000   0.42250   1.000
    C7      C    0.11000   0.85310   0.67250   1.000
    C7      C    0.39000   0.14690   0.17250   1.000
    C7      C    0.89690   0.64000   0.57750   1.000
    C7      C    0.60310   0.36000   0.07750   1.000
    C7      C    0.39000   0.85310   0.82750   1.000
    C7      C    0.11000   0.14690   0.32750   1.000
    C7      C    0.89690   0.86000   0.57750   1.000
    C7      C    0.60310   0.14000   0.07750   1.000
    C7      C    0.39000   0.64690   0.82750   1.000
    C7      C    0.11000   0.35310   0.32750   1.000
    C7      C    0.60310   0.86000   0.92250   1.000
    C7      C    0.89690   0.14000   0.42250   1.000
    C7      C    0.11000   0.64690   0.67250   1.000
    C7      C    0.39000   0.35310   0.17250   1.000
    C7      C    0.10310   0.14000   0.42250   1.000
    C7      C    0.39690   0.86000   0.92250   1.000
    C7      C    0.61000   0.35310   0.17250   1.000
    C7      C    0.89000   0.64690   0.67250   1.000
    C7      C    0.39690   0.14000   0.07750   1.000
    C7      C    0.10310   0.86000   0.57750   1.000
    C7      C    0.89000   0.35310   0.32750   1.000
    C7      C    0.61000   0.64690   0.82750   1.000
    O2AA    O    0.05400   0.68300   0.57250   1.000
    O2AA    O    0.93300   0.19600   0.32250   1.000
    O2AA    O    0.56700   0.80400   0.82250   1.000
    O2AA    O    0.05400   0.31700   0.42750   1.000
    O2AA    O    0.44600   0.68300   0.92750   1.000
    O2AA    O    0.56700   0.19600   0.17750   1.000
    O2AA    O    0.93300   0.80400   0.67750   1.000
    O2AA    O    0.55400   0.68300   0.92750   1.000
    O2AA    O    0.94600   0.31700   0.42750   1.000
    O2AA    O    0.06700   0.80400   0.67750   1.000
    O2AA    O    0.43300   0.19600   0.17750   1.000
    O2AA    O    0.94600   0.68300   0.57250   1.000
    O2AA    O    0.55400   0.31700   0.07250   1.000
    O2AA    O    0.43300   0.80400   0.82250   1.000
    O2AA    O    0.06700   0.19600   0.32250   1.000
    O2AA    O    0.94600   0.81700   0.57250   1.000
    O2AA    O    0.55400   0.18300   0.07250   1.000
    O2AA    O    0.43300   0.69600   0.82250   1.000
    O2AA    O    0.06700   0.30400   0.32250   1.000
    O2AA    O    0.55400   0.81700   0.92750   1.000
    O2AA    O    0.94600   0.18300   0.42750   1.000
    O2AA    O    0.06700   0.69600   0.67750   1.000
    O2AA    O    0.43300   0.30400   0.17750   1.000
    O2AA    O    0.05400   0.18300   0.42750   1.000
    O2AA    O    0.44600   0.81700   0.92750   1.000
    O2AA    O    0.56700   0.30400   0.17750   1.000
    O2AA    O    0.93300   0.69600   0.67750   1.000
    O2AA    O    0.44600   0.18300   0.07250   1.000
    O2AA    O    0.05400   0.81700   0.57250   1.000
    O2AA    O    0.93300   0.30400   0.32250   1.000
    O2AA    O    0.56700   0.69600   0.82250   1.000
    O6      O    0.11460   0.62400   0.59760   1.000
    O6      O    0.87400   0.13540   0.34760   1.000
    O6      O    0.62600   0.86460   0.84760   1.000
    O6      O    0.11460   0.37600   0.40240   1.000
    O6      O    0.38540   0.62400   0.90240   1.000
    O6      O    0.62600   0.13540   0.15240   1.000
    O6      O    0.87400   0.86460   0.65240   1.000
    O6      O    0.61460   0.62400   0.90240   1.000
    O6      O    0.88540   0.37600   0.40240   1.000
    O6      O    0.12600   0.86460   0.65240   1.000
    O6      O    0.37400   0.13540   0.15240   1.000
    O6      O    0.88540   0.62400   0.59760   1.000
    O6      O    0.61460   0.37600   0.09760   1.000
    O6      O    0.37400   0.86460   0.84760   1.000
    O6      O    0.12600   0.13540   0.34760   1.000
    O6      O    0.88540   0.87600   0.59760   1.000
    O6      O    0.61460   0.12400   0.09760   1.000
    O6      O    0.37400   0.63540   0.84760   1.000
    O6      O    0.12600   0.36460   0.34760   1.000
    O6      O    0.61460   0.87600   0.90240   1.000
    O6      O    0.88540   0.12400   0.40240   1.000
    O6      O    0.12600   0.63540   0.65240   1.000
    O6      O    0.37400   0.36460   0.15240   1.000
    O6      O    0.11460   0.12400   0.40240   1.000
    O6      O    0.38540   0.87600   0.90240   1.000
    O6      O    0.62600   0.36460   0.15240   1.000
    O6      O    0.87400   0.63540   0.65240   1.000
    O6      O    0.38540   0.12400   0.09760   1.000
    O6      O    0.11460   0.87600   0.59760   1.000
    O6      O    0.87400   0.36460   0.34760   1.000
    O6      O    0.62600   0.63540   0.84760   1.000
    H8AA    H    0.44570   0.58420   0.51310   1.000
    H8AA    H    0.83420   0.80430   0.26310   1.000
    H8AA    H    0.66580   0.19570   0.76310   1.000
    H8AA    H    0.44570   0.41580   0.48690   1.000
    H8AA    H    0.05430   0.58420   0.98690   1.000
    H8AA    H    0.66580   0.80430   0.23690   1.000
    H8AA    H    0.83420   0.19570   0.73690   1.000
    H8AA    H    0.94570   0.58420   0.98690   1.000
    H8AA    H    0.55430   0.41580   0.48690   1.000
    H8AA    H    0.16580   0.19570   0.73690   1.000
    H8AA    H    0.33420   0.80430   0.23690   1.000
    H8AA    H    0.55430   0.58420   0.51310   1.000
    H8AA    H    0.94570   0.41580   0.01310   1.000
    H8AA    H    0.33420   0.19570   0.76310   1.000
    H8AA    H    0.16580   0.80430   0.26310   1.000
    H8AA    H    0.55430   0.91580   0.51310   1.000
    H8AA    H    0.94570   0.08420   0.01310   1.000
    H8AA    H    0.33420   0.30430   0.76310   1.000
    H8AA    H    0.16580   0.69570   0.26310   1.000
    H8AA    H    0.94570   0.91580   0.98690   1.000
    H8AA    H    0.55430   0.08420   0.48690   1.000
    H8AA    H    0.16580   0.30430   0.73690   1.000
    H8AA    H    0.33420   0.69570   0.23690   1.000
    H8AA    H    0.44570   0.08420   0.48690   1.000
    H8AA    H    0.05430   0.91580   0.98690   1.000
    H8AA    H    0.66580   0.69570   0.23690   1.000
    H8AA    H    0.83420   0.30430   0.73690   1.000
    H8AA    H    0.05430   0.08420   0.01310   1.000
    H8AA    H    0.44570   0.91580   0.51310   1.000
    H8AA    H    0.83420   0.69570   0.26310   1.000
    H8AA    H    0.66580   0.30430   0.76310   1.000
    H5      H    0.34730   0.54890   0.52700   1.000
    H5      H    0.79890   0.90270   0.27700   1.000
    H5      H    0.70110   0.09730   0.77700   1.000
    H5      H    0.34730   0.45110   0.47300   1.000
    H5      H    0.15270   0.54890   0.97300   1.000
    H5      H    0.70110   0.90270   0.22300   1.000
    H5      H    0.79890   0.09730   0.72300   1.000
    H5      H    0.84730   0.54890   0.97300   1.000
    H5      H    0.65270   0.45110   0.47300   1.000
    H5      H    0.20110   0.09730   0.72300   1.000
    H5      H    0.29890   0.90270   0.22300   1.000
    H5      H    0.65270   0.54890   0.52700   1.000
    H5      H    0.84730   0.45110   0.02700   1.000
    H5      H    0.29890   0.09730   0.77700   1.000
    H5      H    0.20110   0.90270   0.27700   1.000
    H5      H    0.65270   0.95110   0.52700   1.000
    H5      H    0.84730   0.04890   0.02700   1.000
    H5      H    0.29890   0.40270   0.77700   1.000
    H5      H    0.20110   0.59730   0.27700   1.000
    H5      H    0.84730   0.95110   0.97300   1.000
    H5      H    0.65270   0.04890   0.47300   1.000
    H5      H    0.20110   0.40270   0.72300   1.000
    H5      H    0.29890   0.59730   0.22300   1.000
    H5      H    0.34730   0.04890   0.47300   1.000
    H5      H    0.15270   0.95110   0.97300   1.000
    H5      H    0.70110   0.59730   0.22300   1.000
    H5      H    0.79890   0.40270   0.72300   1.000
    H5      H    0.15270   0.04890   0.02700   1.000
    H5      H    0.34730   0.95110   0.52700   1.000
    H5      H    0.79890   0.59730   0.27700   1.000
    H5      H    0.70110   0.40270   0.77700   1.000
    H3      H    0.15410   0.60950   0.51400   1.000
    H3      H    0.85950   0.09590   0.26400   1.000
    H3      H    0.64050   0.90410   0.76400   1.000
    H3      H    0.15410   0.39050   0.48600   1.000
    H3      H    0.34590   0.60950   0.98600   1.000
    H3      H    0.64050   0.09590   0.23600   1.000
    H3      H    0.85950   0.90410   0.73600   1.000
    H3      H    0.65410   0.60950   0.98600   1.000
    H3      H    0.84590   0.39050   0.48600   1.000
    H3      H    0.14050   0.90410   0.73600   1.000
    H3      H    0.35950   0.09590   0.23600   1.000
    H3      H    0.84590   0.60950   0.51400   1.000
    H3      H    0.65410   0.39050   0.01400   1.000
    H3      H    0.35950   0.90410   0.76400   1.000
    H3      H    0.14050   0.09590   0.26400   1.000
    H3      H    0.84590   0.89050   0.51400   1.000
    H3      H    0.65410   0.10950   0.01400   1.000
    H3      H    0.35950   0.59590   0.76400   1.000
    H3      H    0.14050   0.40410   0.26400   1.000
    H3      H    0.65410   0.89050   0.98600   1.000
    H3      H    0.84590   0.10950   0.48600   1.000
    H3      H    0.14050   0.59590   0.73600   1.000
    H3      H    0.35950   0.40410   0.23600   1.000
    H3      H    0.15410   0.10950   0.48600   1.000
    H3      H    0.34590   0.89050   0.98600   1.000
    H3      H    0.64050   0.40410   0.23600   1.000
    H3      H    0.85950   0.59590   0.73600   1.000
    H3      H    0.34590   0.10950   0.01400   1.000
    H3      H    0.15410   0.89050   0.51400   1.000
    H3      H    0.85950   0.40410   0.26400   1.000
    H3      H    0.64050   0.59590   0.76400   1.000
    H2      H    0.09070   0.65600   0.53950   1.000
    H2      H    0.90600   0.15930   0.28950   1.000
    H2      H    0.59400   0.84070   0.78950   1.000
    H2      H    0.09070   0.34400   0.46050   1.000
    H2      H    0.40930   0.65600   0.96050   1.000
    H2      H    0.59400   0.15930   0.21050   1.000
    H2      H    0.90600   0.84070   0.71050   1.000
    H2      H    0.59070   0.65600   0.96050   1.000
    H2      H    0.90930   0.34400   0.46050   1.000
    H2      H    0.09400   0.84070   0.71050   1.000
    H2      H    0.40600   0.15930   0.21050   1.000
    H2      H    0.90930   0.65600   0.53950   1.000
    H2      H    0.59070   0.34400   0.03950   1.000
    H2      H    0.40600   0.84070   0.78950   1.000
    H2      H    0.09400   0.15930   0.28950   1.000
    H2      H    0.90930   0.84400   0.53950   1.000
    H2      H    0.59070   0.15600   0.03950   1.000
    H2      H    0.40600   0.65930   0.78950   1.000
    H2      H    0.09400   0.34070   0.28950   1.000
    H2      H    0.59070   0.84400   0.96050   1.000
    H2      H    0.90930   0.15600   0.46050   1.000
    H2      H    0.09400   0.65930   0.71050   1.000
    H2      H    0.40600   0.34070   0.21050   1.000
    H2      H    0.09070   0.15600   0.46050   1.000
    H2      H    0.40930   0.84400   0.96050   1.000
    H2      H    0.59400   0.34070   0.21050   1.000
    H2      H    0.90600   0.65930   0.71050   1.000
    H2      H    0.40930   0.15600   0.03950   1.000
    H2      H    0.09070   0.84400   0.53950   1.000
    H2      H    0.90600   0.34070   0.28950   1.000
    H2      H    0.59400   0.65930   0.78950   1.000
    H14     H    0.19880   0.56400   0.58180   1.000
    H14     H    0.81400   0.05120   0.33180   1.000
    H14     H    0.68600   0.94880   0.83180   1.000
    H14     H    0.19880   0.43600   0.41820   1.000
    H14     H    0.30120   0.56400   0.91820   1.000
    H14     H    0.68600   0.05120   0.16820   1.000
    H14     H    0.81400   0.94880   0.66820   1.000
    H14     H    0.69880   0.56400   0.91820   1.000
    H14     H    0.80120   0.43600   0.41820   1.000
    H14     H    0.18600   0.94880   0.66820   1.000
    H14     H    0.31400   0.05120   0.16820   1.000
    H14     H    0.80120   0.56400   0.58180   1.000
    H14     H    0.69880   0.43600   0.08180   1.000
    H14     H    0.31400   0.94880   0.83180   1.000
    H14     H    0.18600   0.05120   0.33180   1.000
    H14     H    0.80120   0.93600   0.58180   1.000
    H14     H    0.69880   0.06400   0.08180   1.000
    H14     H    0.31400   0.55120   0.83180   1.000
    H14     H    0.18600   0.44880   0.33180   1.000
    H14     H    0.69880   0.93600   0.91820   1.000
    H14     H    0.80120   0.06400   0.41820   1.000
    H14     H    0.18600   0.55120   0.66820   1.000
    H14     H    0.31400   0.44880   0.16820   1.000
    H14     H    0.19880   0.06400   0.41820   1.000
    H14     H    0.30120   0.93600   0.91820   1.000
    H14     H    0.68600   0.44880   0.16820   1.000
    H14     H    0.81400   0.55120   0.66820   1.000
    H14     H    0.30120   0.06400   0.08180   1.000
    H14     H    0.19880   0.93600   0.58180   1.000
    H14     H    0.81400   0.44880   0.33180   1.000
    H14     H    0.68600   0.55120   0.83180   1.000
    H0AA    H    0.26220   0.51800   0.55630   1.000
    H0AA    H    0.76800   0.98780   0.30630   1.000
    H0AA    H    0.73200   0.01220   0.80630   1.000
    H0AA    H    0.26220   0.48200   0.44370   1.000
    H0AA    H    0.23780   0.51800   0.94370   1.000
    H0AA    H    0.73200   0.98780   0.19370   1.000
    H0AA    H    0.76800   0.01220   0.69370   1.000
    H0AA    H    0.76220   0.51800   0.94370   1.000
    H0AA    H    0.73780   0.48200   0.44370   1.000
    H0AA    H    0.23200   0.01220   0.69370   1.000
    H0AA    H    0.26800   0.98780   0.19370   1.000
    H0AA    H    0.73780   0.51800   0.55630   1.000
    H0AA    H    0.76220   0.48200   0.05630   1.000
    H0AA    H    0.26800   0.01220   0.80630   1.000
    H0AA    H    0.23200   0.98780   0.30630   1.000
    H0AA    H    0.73780   0.98200   0.55630   1.000
    H0AA    H    0.76220   0.01800   0.05630   1.000
    H0AA    H    0.26800   0.48780   0.80630   1.000
    H0AA    H    0.23200   0.51220   0.30630   1.000
    H0AA    H    0.76220   0.98200   0.94370   1.000
    H0AA    H    0.73780   0.01800   0.44370   1.000
    H0AA    H    0.23200   0.48780   0.69370   1.000
    H0AA    H    0.26800   0.51220   0.19370   1.000
    H0AA    H    0.26220   0.01800   0.44370   1.000
    H0AA    H    0.23780   0.98200   0.94370   1.000
    H0AA    H    0.73200   0.51220   0.19370   1.000
    H0AA    H    0.76800   0.48780   0.69370   1.000
    H0AA    H    0.23780   0.01800   0.05630   1.000
    H0AA    H    0.26220   0.98200   0.55630   1.000
    H0AA    H    0.76800   0.51220   0.30630   1.000
    H0AA    H    0.73200   0.48780   0.80630   1.000
    N1b     N    0.22490   0.50000   0.50000   1.000
    N1b     N    0.75000   0.02510   0.25000   1.000
    N1b     N    0.75000   0.97490   0.75000   1.000
    N1b     N    0.72490   0.50000   0.00000   1.000
    N1b     N    0.77510   0.50000   0.50000   1.000
    N1b     N    0.25000   0.97490   0.75000   1.000
    N1b     N    0.25000   0.02510   0.25000   1.000
    N1b     N    0.77510   0.00000   0.50000   1.000
    N1b     N    0.72490   0.00000   0.00000   1.000
    N1b     N    0.25000   0.52510   0.75000   1.000
    N1b     N    0.25000   0.47490   0.25000   1.000
    N1b     N    0.22490   0.00000   0.50000   1.000
    N1b     N    0.27510   0.00000   0.00000   1.000
    N1b     N    0.75000   0.47490   0.25000   1.000
    N1b     N    0.75000   0.52510   0.75000   1.000
    ZR1     Zr   0.00000   0.75000   0.58925   1.000
    ZR1     Zr   0.00000   0.25000   0.33925   1.000
    ZR1     Zr   0.50000   0.75000   0.83925   1.000
    ZR1     Zr   0.00000   0.25000   0.41075   1.000
    ZR1     Zr   0.50000   0.75000   0.91075   1.000
    ZR1     Zr   0.50000   0.25000   0.16075   1.000
    ZR1     Zr   0.00000   0.75000   0.66075   1.000
    ZR2     Zr   0.08392   0.66608   0.62500   1.000
    ZR2     Zr   0.91608   0.16608   0.37500   1.000
    ZR2     Zr   0.58392   0.83392   0.87500   1.000
    ZR2     Zr   0.08392   0.33392   0.37500   1.000
    ZR2     Zr   0.41608   0.66608   0.87500   1.000
    ZR2     Zr   0.58392   0.16608   0.12500   1.000
    ZR2     Zr   0.91608   0.83392   0.62500   1.000
    ZR2     Zr   0.58392   0.66608   0.87500   1.000
    ZR2     Zr   0.91608   0.33392   0.37500   1.000
    ZR2     Zr   0.08392   0.83392   0.62500   1.000
    ZR2     Zr   0.41608   0.16608   0.12500   1.000
    ZR2     Zr   0.91608   0.66608   0.62500   1.000
    ZR2     Zr   0.58392   0.33392   0.12500   1.000
    ZR2     Zr   0.41608   0.83392   0.87500   1.000
    ZR2     Zr   0.08392   0.16608   0.37500   1.000
    O1      O    0.08990   0.75000   0.60360   1.000
    O1      O    0.00000   0.16010   0.35360   1.000
    O1      O    0.50000   0.83990   0.85360   1.000
    O1      O    0.08990   0.25000   0.39640   1.000
    O1      O    0.41010   0.75000   0.89640   1.000
    O1      O    0.50000   0.16010   0.14640   1.000
    O1      O    0.00000   0.83990   0.64640   1.000
    O1      O    0.58990   0.75000   0.89640   1.000
    O1      O    0.91010   0.25000   0.39640   1.000
    O1      O    0.91010   0.75000   0.60360   1.000
    O1      O    0.58990   0.25000   0.10360   1.000
    O1      O    0.50000   0.66010   0.85360   1.000
    O1      O    0.00000   0.33990   0.35360   1.000
    O1      O    0.00000   0.66010   0.64640   1.000
    O1      O    0.50000   0.33990   0.14640   1.000
    O2      O    0.00000   0.65830   0.60670   1.000
    O2      O    0.90830   0.25000   0.35670   1.000
    O2      O    0.59170   0.75000   0.85670   1.000
    O2      O    0.00000   0.34170   0.39330   1.000
    O2      O    0.50000   0.65830   0.89330   1.000
    O2      O    0.59170   0.25000   0.14330   1.000
    O2      O    0.90830   0.75000   0.64330   1.000
    O2      O    0.09170   0.75000   0.64330   1.000
    O2      O    0.40830   0.25000   0.14330   1.000
    O2      O    0.40830   0.75000   0.85670   1.000
    O2      O    0.09170   0.25000   0.35670   1.000
    O2      O    0.00000   0.84170   0.60670   1.000
    O2      O    0.50000   0.15830   0.10670   1.000
    O2      O    0.50000   0.84170   0.89330   1.000
    O2      O    0.00000   0.15830   0.39330   1.000
