# CIF file generated by openbabel 2.3.2, see http://openbabel.sf.net
data_I
_chemical_name_common ''
_cell_length_a 15.1496
_cell_length_b 15.1496
_cell_length_c 18.6597
_cell_angle_alpha 90
_cell_angle_beta 90
_cell_angle_gamma 90
_space_group_name_H-M_alt 'P 1'
_space_group_name_Hall 'P 1'
loop_
    _symmetry_equiv_pos_as_xyz
    'x,y,z'
loop_
    _atom_site_type_symbol
    _atom_site_label
    _atom_site_fract_x
    _atom_site_fract_y
    _atom_site_fract_z
Ni  Ni  0.500000    0.500000    0.071900
 O   O  0.610700    0.567000    0.063700
 C   C  0.634700    0.589700    0.000000
 C   C  0.714600    0.652900    0.000000
 C   C  0.748100    0.685300    0.064500
 N   N  0.500000    0.500000    0.181900
Ni  Ni  0.500000    0.500000    0.428100
Ni  Ni  0.500000    0.500000    0.928100
Ni  Ni  0.500000    0.500000    0.571900
Ni  Ni  -0.000000   -0.000000   0.571900
Ni  Ni  -0.000000   -0.000000   0.928100
Ni  Ni  -0.000000   -0.000000   0.428100
Ni  Ni  -0.000000   -0.000000   0.071900
 O   O  0.389300    0.433000    0.063700
 O   O  0.433000    0.610700    0.063700
 O   O  0.567000    0.389300    0.063700
 O   O  0.389300    0.567000    0.436300
 O   O  0.610700    0.433000    0.436300
 O   O  0.567000    0.610700    0.436300
 O   O  0.433000    0.389300    0.436300
 O   O  0.389300    0.433000    0.936300
 O   O  0.610700    0.567000    0.936300
 O   O  0.567000    0.389300    0.936300
 O   O  0.433000    0.610700    0.936300
 O   O  0.610700    0.433000    0.563700
 O   O  0.389300    0.567000    0.563700
 O   O  0.433000    0.389300    0.563700
 O   O  0.567000    0.610700    0.563700
 O   O  0.110700    0.067000    0.563700
 O   O  0.889300    0.933000    0.563700
 O   O  0.933000    0.110700    0.563700
 O   O  0.067000    0.889300    0.563700
 O   O  0.889300    0.067000    0.936300
 O   O  0.110700    0.933000    0.936300
 O   O  0.067000    0.110700    0.936300
 O   O  0.933000    0.889300    0.936300
 O   O  0.889300    0.933000    0.436300
 O   O  0.110700    0.067000    0.436300
 O   O  0.067000    0.889300    0.436300
 O   O  0.933000    0.110700    0.436300
 O   O  0.110700    0.933000    0.063700
 O   O  0.889300    0.067000    0.063700
 O   O  0.933000    0.889300    0.063700
 O   O  0.067000    0.110700    0.063700
 C   C  0.365300    0.410300    0.000000
 C   C  0.410300    0.634700    0.000000
 C   C  0.589700    0.365300    0.000000
 C   C  0.365300    0.589700    0.500000
 C   C  0.634700    0.410300    0.500000
 C   C  0.589700    0.634700    0.500000
 C   C  0.410300    0.365300    0.500000
 C   C  0.134700    0.089700    0.500000
 C   C  0.865300    0.910300    0.500000
 C   C  0.910300    0.134700    0.500000
 C   C  0.089700    0.865300    0.500000
 C   C  0.865300    0.089700    0.000000
 C   C  0.134700    0.910300    0.000000
 C   C  0.089700    0.134700    0.000000
 C   C  0.910300    0.865300    0.000000
 C   C  0.285400    0.347100    0.000000
 C   C  0.347100    0.714600    0.000000
 C   C  0.652900    0.285400    0.000000
 C   C  0.285400    0.652900    0.500000
 C   C  0.714600    0.347100    0.500000
 C   C  0.652900    0.714600    0.500000
 C   C  0.347100    0.285400    0.500000
 C   C  0.214600    0.152900    0.500000
 C   C  0.785400    0.847100    0.500000
 C   C  0.847100    0.214600    0.500000
 C   C  0.152900    0.785400    0.500000
 C   C  0.785400    0.152900    0.000000
 C   C  0.214600    0.847100    0.000000
 C   C  0.152900    0.214600    0.000000
 C   C  0.847100    0.785400    0.000000
 C   C  0.251900    0.314700    0.064500
 C   C  0.314700    0.748100    0.064500
 C   C  0.685300    0.251900    0.064500
 C   C  0.251900    0.685300    0.435500
 C   C  0.748100    0.314700    0.435500
 C   C  0.685300    0.748100    0.435500
 C   C  0.314700    0.251900    0.435500
 C   C  0.251900    0.314700    0.935500
 C   C  0.748100    0.685300    0.935500
 C   C  0.685300    0.251900    0.935500
 C   C  0.314700    0.748100    0.935500
 C   C  0.748100    0.314700    0.564500
 C   C  0.251900    0.685300    0.564500
 C   C  0.314700    0.251900    0.564500
 C   C  0.685300    0.748100    0.564500
 C   C  0.248100    0.185300    0.564500
 C   C  0.751900    0.814700    0.564500
 C   C  0.814700    0.248100    0.564500
 C   C  0.185300    0.751900    0.564500
 C   C  0.751900    0.185300    0.935500
 C   C  0.248100    0.814700    0.935500
 C   C  0.185300    0.248100    0.935500
 C   C  0.814700    0.751900    0.935500
 C   C  0.751900    0.814700    0.435500
 C   C  0.248100    0.185300    0.435500
 C   C  0.185300    0.751900    0.435500
 C   C  0.814700    0.248100    0.435500
 C   C  0.248100    0.814700    0.064500
 C   C  0.751900    0.185300    0.064500
 C   C  0.814700    0.751900    0.064500
 C   C  0.185300    0.248100    0.064500
 N   N  0.500000    0.500000    0.318100
 N   N  0.500000    0.500000    0.818100
 N   N  0.500000    0.500000    0.681900
 N   N  -0.000000   -0.000000   0.681900
 N   N  -0.000000   -0.000000   0.818100
 N   N  -0.000000   -0.000000   0.318100
 N   N  -0.000000   -0.000000   0.181900
 C   C  0.096031    -0.000000   0.289200
 C   C  0.096031    -0.000000   0.210800
 C   C  -0.048015   0.083165    0.289200
 C   C  -0.048015   0.083165    0.210800
 C   C  -0.048015   -0.083165   0.289200
 C   C  -0.048015   -0.083165   0.210800
 C   C  0.596031    0.500000    0.289200
 C   C  0.596031    0.500000    0.210800
 C   C  0.451985    0.583165    0.289200
 C   C  0.451985    0.583165    0.210800
 C   C  0.451985    0.416835    0.289200
 C   C  0.451985    0.416835    0.210800
 C   C  0.096031    -0.000000   0.789200
 C   C  0.096031    -0.000000   0.710800
 C   C  -0.048015   0.083165    0.789200
 C   C  -0.048015   0.083165    0.710800
 C   C  -0.048015   -0.083165   0.789200
 C   C  -0.048015   -0.083165   0.710800
 C   C  0.596031    0.500000    0.789200
 C   C  0.596031    0.500000    0.710800
 C   C  0.451985    0.583165    0.789200
 C   C  0.451985    0.583165    0.710800
 C   C  0.451985    0.416835    0.789200
 C   C  0.451985    0.416835    0.710800
 H   H  0.724568    0.660949    0.112489
 H   H  0.862153    0.907324    0.603715
 H   H  0.907324    0.137847    0.603715
 H   H  0.092676    0.862153    0.603715
 H   H  0.069009    0.063755    0.500000
 H   H  0.275432    0.339051    0.112489
 H   H  0.339051    0.724568    0.112489
 H   H  0.660949    0.275432    0.112489
 H   H  0.275432    0.660949    0.387511
 H   H  0.724568    0.339051    0.387511
 H   H  0.660949    0.724568    0.387511
 H   H  0.339051    0.275432    0.387511
 H   H  0.268895    0.330999    0.881438
 H   H  0.724568    0.660949   -0.112489
 H   H  0.661768    0.276251   -0.112489
 H   H  0.338232    0.723749   -0.112489
 H   H  0.724568    0.339051    0.612489
 H   H  0.275432    0.660949    0.612489
 H   H  0.339051    0.275432    0.612489
 H   H  0.660949    0.724568    0.612489
 H   H  0.224568    0.160949    0.612489
 H   H  0.775432    0.839051    0.612489
 H   H  0.839051    0.224568    0.612489
 H   H  0.160949    0.775432    0.612489
 H   H  0.775432    0.160949   -0.112489
 H   H  0.224568    0.839051   -0.112489
 H   H  0.161768    0.223749   -0.112489
 H   H  0.825817    0.774078    0.881811
 H   H  0.775432    0.839051    0.387511
 H   H  0.224568    0.160949    0.387511
 H   H  0.160949    0.775432    0.387511
 H   H  0.839051    0.224568    0.387511
 H   H  0.224568    0.839051    0.112489
 H   H  0.775432    0.160949    0.112489
 H   H  0.839051    0.775432    0.112489
 H   H  0.160949    0.224568    0.112489
 H   H  0.129503    0.057668    0.308109
 H   H  0.129019    -0.058081   0.307836
 H   H  0.129503    0.057668    0.191891
 H   H  0.129019    -0.058081   0.192164
 H   H  -0.114693   0.083318    0.308109
 H   H  -0.014210   0.140773    0.307836
 H   H  -0.114693   0.083318    0.191891
 H   H  -0.014210   0.140773    0.192164
 H   H  -0.014809   -0.140987   0.308109
 H   H  -0.114808   -0.082693   0.307836
 H   H  -0.014809   -0.140987   0.191891
 H   H  -0.114808   -0.082693   0.192164
 H   H  0.629503    0.557668    0.308109
 H   H  0.629019    0.441919    0.307836
 H   H  0.629503    0.557668    0.191891
 H   H  0.629019    0.441919    0.192164
 H   H  0.385307    0.583319    0.308109
 H   H  0.485790    0.640773    0.307836
 H   H  0.385307    0.583319    0.191891
 H   H  0.485790    0.640774    0.192164
 H   H  0.485191    0.359013    0.308109
 H   H  0.385192    0.417307    0.307836
 H   H  0.485191    0.359013    0.191891
 H   H  0.385192    0.417307    0.192164
 H   H  0.129503    0.057668    0.808109
 H   H  0.129503    0.057668    0.691891
 H   H  0.129019    -0.058081   0.692164
 H   H  -0.114693   0.083318    0.808109
 H   H  -0.014210   0.140773    0.807836
 H   H  -0.114693   0.083318    0.691891
 H   H  -0.014210   0.140773    0.692164
 H   H  -0.014809   -0.140987   0.808109
 H   H  -0.114808   -0.082693   0.807836
 H   H  -0.014809   -0.140987   0.691891
 H   H  -0.114808   -0.082693   0.692164
 H   H  0.629503    0.557668    0.808109
 H   H  0.629019    0.441919    0.807836
 H   H  0.629503    0.557668    0.691891
 H   H  0.629019    0.441919    0.692164
 H   H  0.385307    0.583318    0.808109
 H   H  0.485790    0.640773    0.807836
 H   H  0.385307    0.583318    0.691891
 H   H  0.485790    0.640773    0.692164
 H   H  0.485191    0.359013    0.808109
 H   H  0.385192    0.417307    0.807836
 H   H  0.485191    0.359013    0.691891
 H   H  0.385192    0.417307    0.692164
