# CIF file generated by openbabel 2.4.1, see http://openbabel.sf.net
data_I
_chemical_name_common 'Triinc Bis(hexacyanocobaltate) Dodecahydrate'
_cell_length_a 10.268
_cell_length_b 10.268
_cell_length_c 10.268
_cell_angle_alpha 90
_cell_angle_beta 90
_cell_angle_gamma 90
_space_group_name_H-M_alt 'P 1'
_space_group_name_Hall 'P 1'
loop_
    _symmetry_equiv_pos_as_xyz
    x,y,z
loop_
    _atom_site_label
    _atom_site_type_symbol
    _atom_site_fract_x
    _atom_site_fract_y
    _atom_site_fract_z
    _atom_site_occupancy
    Zn1     Zn   0.50000   0.50000   0.50000   1.000
    Co1     Co   0.00000   0.00000   0.00000   1.000
    C1      C    0.00000   0.00000   0.18500   1.000
    N1      N    0.00000   0.00000   0.29600   1.000
    Zn1     Zn   0.50000   0.00000   0.00000   1.000
    Zn1     Zn   0.00000   0.50000   0.00000   1.000
    Zn1     Zn   0.00000   0.00000   0.50000   1.000
    Co1     Co   0.00000   0.50000   0.50000   1.000
    Co1     Co   0.50000   0.00000   0.50000   1.000
    Co1     Co   0.50000   0.50000   0.00000   1.000
    C1      C    0.00000   0.00000   0.81500   1.000
    C1      C    0.18500   0.00000   0.00000   1.000
    C1      C    0.81500   0.00000   0.00000   1.000
    C1      C    0.00000   0.18500   0.00000   1.000
    C1      C    0.00000   0.81500   0.00000   1.000
    C1      C    0.00000   0.50000   0.68500   1.000
    C1      C    0.00000   0.50000   0.31500   1.000
    C1      C    0.18500   0.50000   0.50000   1.000
    C1      C    0.81500   0.50000   0.50000   1.000
    C1      C    0.00000   0.68500   0.50000   1.000
    C1      C    0.00000   0.31500   0.50000   1.000
    C1      C    0.50000   0.00000   0.68500   1.000
    C1      C    0.50000   0.00000   0.31500   1.000
    C1      C    0.68500   0.00000   0.50000   1.000
    C1      C    0.31500   0.00000   0.50000   1.000
    C1      C    0.50000   0.18500   0.50000   1.000
    C1      C    0.50000   0.81500   0.50000   1.000
    C1      C    0.50000   0.50000   0.18500   1.000
    C1      C    0.50000   0.50000   0.81500   1.000
    C1      C    0.68500   0.50000   0.00000   1.000
    C1      C    0.31500   0.50000   0.00000   1.000
    C1      C    0.50000   0.68500   0.00000   1.000
    C1      C    0.50000   0.31500   0.00000   1.000
    N1      N    0.00000   0.00000   0.70400   1.000
    N1      N    0.29600   0.00000   0.00000   1.000
    N1      N    0.70400   0.00000   0.00000   1.000
    N1      N    0.00000   0.29600   0.00000   1.000
    N1      N    0.00000   0.70400   0.00000   1.000
    N1      N    0.00000   0.50000   0.79600   1.000
    N1      N    0.00000   0.50000   0.20400   1.000
    N1      N    0.29600   0.50000   0.50000   1.000
    N1      N    0.70400   0.50000   0.50000   1.000
    N1      N    0.00000   0.79600   0.50000   1.000
    N1      N    0.00000   0.20400   0.50000   1.000
    N1      N    0.50000   0.00000   0.79600   1.000
    N1      N    0.50000   0.00000   0.20400   1.000
    N1      N    0.79600   0.00000   0.50000   1.000
    N1      N    0.20400   0.00000   0.50000   1.000
    N1      N    0.50000   0.29600   0.50000   1.000
    N1      N    0.50000   0.70400   0.50000   1.000
    N1      N    0.50000   0.50000   0.29600   1.000
    N1      N    0.50000   0.50000   0.70400   1.000
    N1      N    0.79600   0.50000   0.00000   1.000
    N1      N    0.20400   0.50000   0.00000   1.000
    N1      N    0.50000   0.79600   0.00000   1.000
    N1      N    0.50000   0.20400   0.00000   1.000
