data_HOGLEV_clean_PM
_symmetry_space_group_name_H-M   'P 1'
_cell_length_a 22.627000
_cell_length_b 32.868000
_cell_length_c 32.868000
_cell_angle_alpha 90.000000
_cell_angle_beta 90.000000
_cell_angle_gamma 90.000000
_symmetry_Int_Tables_number 1

loop_
_symmetry_equiv_pos_as_xyz
 'x, y, z'

loop_
_atom_site_label
_atom_site_fract_x
_atom_site_fract_y
_atom_site_fract_z
_atom_site_charge
Cu 0.750190 0.829860 -0.000000 1.185001
Cu 0.830950 0.772700 -0.000000 1.170455
Cu 0.750190 0.170140 0.000000 1.185001
Cu 0.830950 0.227300 -0.000000 1.170455
Cu 0.750190 0.000000 0.829860 1.185001
Cu 0.830950 0.000000 0.772700 1.170455
Cu 0.750190 0.000000 0.170140 1.185001
Cu 0.830950 0.000000 0.227300 1.170455
Cu 0.249810 0.170140 -0.000000 1.185001
Cu 0.169050 0.227300 0.000000 1.170455
Cu 0.249810 0.829860 0.000000 1.185001
Cu 0.169050 0.772700 -0.000000 1.170455
Cu 0.249810 0.000000 0.829860 1.185001
Cu 0.169050 0.000000 0.772700 1.170455
Cu 0.249810 0.000000 0.170140 1.185001
Cu 0.169050 0.000000 0.227300 1.170455
Cu 0.500000 0.770220 0.770220 1.157739
Cu 0.500000 0.826800 0.826800 1.195298
Cu 0.500000 0.229780 0.229780 1.157739
Cu 0.500000 0.173200 0.173200 1.195298
Cu 0.500000 0.229780 0.770220 1.157739
Cu 0.500000 0.173200 0.826800 1.195298
Cu 0.500000 0.770220 0.229780 1.157739
Cu 0.500000 0.826800 0.173200 1.195298
Cu 0.831920 0.661510 0.661510 1.179836
Cu 0.752050 0.620710 0.620710 1.191697
Cu 0.831920 0.338490 0.338490 1.179836
Cu 0.752050 0.379290 0.379290 1.191697
Cu 0.831920 0.338490 0.661510 1.179836
Cu 0.752050 0.379290 0.620710 1.191697
Cu 0.831920 0.661510 0.338490 1.179836
Cu 0.752050 0.620710 0.379290 1.191697
Cu 0.168080 0.338490 0.661510 1.179836
Cu 0.247950 0.379290 0.620710 1.191697
Cu 0.168080 0.661510 0.338490 1.179836
Cu 0.247950 0.620710 0.379290 1.191697
Cu 0.168080 0.661510 0.661510 1.179836
Cu 0.247950 0.620710 0.620710 1.191697
Cu 0.168080 0.338490 0.338490 1.179836
Cu 0.247950 0.379290 0.379290 1.191697
Cu 0.500000 0.500000 0.740690 1.178967
Cu 0.500000 0.500000 0.820480 1.196028
Cu 0.500000 0.500000 0.259310 1.178967
Cu 0.500000 0.500000 0.179520 1.196028
Cu 0.500000 0.259310 0.500000 1.178967
Cu 0.500000 0.179520 0.500000 1.196028
Cu 0.500000 0.740690 0.500000 1.178967
Cu 0.500000 0.820480 0.500000 1.196028
H 0.641600 0.786900 0.902000 0.159473
H 0.632100 0.688000 0.827700 0.136091
H 0.754500 0.693000 0.914500 0.133797
H 0.641300 0.583000 0.719900 0.159644
H 0.629000 0.590800 0.842000 0.136431
H 0.755100 0.652700 0.781000 0.135884
H 0.704300 0.622200 0.880700 0.136647
H 0.761300 0.639500 0.860100 0.135481
H 0.941000 0.813900 0.098600 0.131977
H 0.934700 0.561900 0.708500 0.130311
H 0.641600 0.213100 0.098000 0.159473
H 0.632100 0.312000 0.172300 0.136091
H 0.754500 0.307000 0.085500 0.133797
H 0.641300 0.417000 0.280100 0.159644
H 0.629000 0.409200 0.158000 0.136431
H 0.755100 0.347300 0.219000 0.135884
H 0.704300 0.377800 0.119300 0.136647
H 0.761300 0.360500 0.139900 0.135481
H 0.941000 0.186100 0.901400 0.131977
H 0.934700 0.438100 0.291500 0.130311
H 0.641600 0.098000 0.786900 0.159473
H 0.632100 0.172300 0.688000 0.136091
H 0.754500 0.085500 0.693000 0.133797
H 0.641300 0.280100 0.583000 0.159644
H 0.629000 0.158000 0.590800 0.136431
H 0.755100 0.219000 0.652700 0.135884
H 0.704300 0.119300 0.622200 0.136647
H 0.761300 0.139900 0.639500 0.135481
H 0.941000 0.901400 0.813900 0.131977
H 0.934700 0.291500 0.561900 0.130311
H 0.641600 0.902000 0.213100 0.159473
H 0.632100 0.827700 0.312000 0.136091
H 0.754500 0.914500 0.307000 0.133797
H 0.641300 0.719900 0.417000 0.159644
H 0.629000 0.842000 0.409200 0.136431
H 0.755100 0.781000 0.347300 0.135884
H 0.704300 0.880700 0.377800 0.136647
H 0.761300 0.860100 0.360500 0.135481
H 0.941000 0.098600 0.186100 0.131977
H 0.934700 0.708500 0.438100 0.130311
H 0.358400 0.213100 0.902000 0.159473
H 0.367900 0.312000 0.827700 0.136091
H 0.245500 0.307000 0.914500 0.133797
H 0.358700 0.417000 0.719900 0.159644
H 0.371000 0.409200 0.842000 0.136431
H 0.244900 0.347300 0.781000 0.135884
H 0.295700 0.377800 0.880700 0.136647
H 0.238700 0.360500 0.860100 0.135481
H 0.059000 0.186100 0.098600 0.131977
H 0.065300 0.438100 0.708500 0.130311
H 0.358400 0.786900 0.098000 0.159473
H 0.367900 0.688000 0.172300 0.136091
H 0.245500 0.693000 0.085500 0.133797
H 0.358700 0.583000 0.280100 0.159644
H 0.371000 0.590800 0.158000 0.136431
H 0.244900 0.652700 0.219000 0.135884
H 0.295700 0.622200 0.119300 0.136647
H 0.238700 0.639500 0.139900 0.135481
H 0.059000 0.813900 0.901400 0.131977
H 0.065300 0.561900 0.291500 0.130311
H 0.358400 0.902000 0.786900 0.159473
H 0.367900 0.827700 0.688000 0.136091
H 0.245500 0.914500 0.693000 0.133797
H 0.358700 0.719900 0.583000 0.159644
H 0.371000 0.842000 0.590800 0.136431
H 0.244900 0.781000 0.652700 0.135884
H 0.295700 0.880700 0.622200 0.136647
H 0.238700 0.860100 0.639500 0.135481
H 0.059000 0.098600 0.813900 0.131977
H 0.065300 0.708500 0.561900 0.130311
H 0.358400 0.098000 0.213100 0.159473
H 0.367900 0.172300 0.312000 0.136091
H 0.245500 0.085500 0.307000 0.133797
H 0.358700 0.280100 0.417000 0.159644
H 0.371000 0.158000 0.409200 0.136431
H 0.244900 0.219000 0.347300 0.135884
H 0.295700 0.119300 0.377800 0.136647
H 0.238700 0.139900 0.360500 0.135481
H 0.059000 0.901400 0.186100 0.131977
H 0.065300 0.291500 0.438100 0.130311
H 0.358400 0.213100 0.098000 0.159473
H 0.367900 0.312000 0.172300 0.136091
H 0.245500 0.307000 0.085500 0.133797
H 0.358700 0.417000 0.280100 0.159644
H 0.371000 0.409200 0.158000 0.136431
H 0.244900 0.347300 0.219000 0.135884
H 0.295700 0.377800 0.119300 0.136647
H 0.238700 0.360500 0.139900 0.135481
H 0.059000 0.186100 0.901400 0.131977
H 0.065300 0.438100 0.291500 0.130311
H 0.358400 0.786900 0.902000 0.159473
H 0.367900 0.688000 0.827700 0.136091
H 0.245500 0.693000 0.914500 0.133797
H 0.358700 0.583000 0.719900 0.159644
H 0.371000 0.590800 0.842000 0.136431
H 0.244900 0.652700 0.781000 0.135884
H 0.295700 0.622200 0.880700 0.136647
H 0.238700 0.639500 0.860100 0.135481
H 0.059000 0.813900 0.098600 0.131977
H 0.065300 0.561900 0.708500 0.130311
H 0.358400 0.902000 0.213100 0.159473
H 0.367900 0.827700 0.312000 0.136091
H 0.245500 0.914500 0.307000 0.133797
H 0.358700 0.719900 0.417000 0.159644
H 0.371000 0.842000 0.409200 0.136431
H 0.244900 0.781000 0.347300 0.135884
H 0.295700 0.880700 0.377800 0.136647
H 0.238700 0.860100 0.360500 0.135481
H 0.059000 0.098600 0.186100 0.131977
H 0.065300 0.708500 0.438100 0.130311
H 0.358400 0.098000 0.786900 0.159473
H 0.367900 0.172300 0.688000 0.136091
H 0.245500 0.085500 0.693000 0.133797
H 0.358700 0.280100 0.583000 0.159644
H 0.371000 0.158000 0.590800 0.136431
H 0.244900 0.219000 0.652700 0.135884
H 0.295700 0.119300 0.622200 0.136647
H 0.238700 0.139900 0.639500 0.135481
H 0.059000 0.901400 0.813900 0.131977
H 0.065300 0.291500 0.561900 0.130311
H 0.641600 0.786900 0.098000 0.159473
H 0.632100 0.688000 0.172300 0.136091
H 0.754500 0.693000 0.085500 0.133797
H 0.641300 0.583000 0.280100 0.159644
H 0.629000 0.590800 0.158000 0.136431
H 0.755100 0.652700 0.219000 0.135884
H 0.704300 0.622200 0.119300 0.136647
H 0.761300 0.639500 0.139900 0.135481
H 0.941000 0.813900 0.901400 0.131977
H 0.934700 0.561900 0.291500 0.130311
H 0.641600 0.213100 0.902000 0.159473
H 0.632100 0.312000 0.827700 0.136091
H 0.754500 0.307000 0.914500 0.133797
H 0.641300 0.417000 0.719900 0.159644
H 0.629000 0.409200 0.842000 0.136431
H 0.755100 0.347300 0.781000 0.135884
H 0.704300 0.377800 0.880700 0.136647
H 0.761300 0.360500 0.860100 0.135481
H 0.941000 0.186100 0.098600 0.131977
H 0.934700 0.438100 0.708500 0.130311
H 0.641600 0.098000 0.213100 0.159473
H 0.632100 0.172300 0.312000 0.136091
H 0.754500 0.085500 0.307000 0.133797
H 0.641300 0.280100 0.417000 0.159644
H 0.629000 0.158000 0.409200 0.136431
H 0.755100 0.219000 0.347300 0.135884
H 0.704300 0.119300 0.377800 0.136647
H 0.761300 0.139900 0.360500 0.135481
H 0.941000 0.901400 0.186100 0.131977
H 0.934700 0.291500 0.438100 0.130311
H 0.641600 0.902000 0.786900 0.159473
H 0.632100 0.827700 0.688000 0.136091
H 0.754500 0.914500 0.693000 0.133797
H 0.641300 0.719900 0.583000 0.159644
H 0.629000 0.842000 0.590800 0.136431
H 0.755100 0.781000 0.652700 0.135884
H 0.704300 0.880700 0.622200 0.136647
H 0.761300 0.860100 0.639500 0.135481
H 0.941000 0.098600 0.813900 0.131977
H 0.934700 0.708500 0.561900 0.130311
H 0.817600 0.904800 0.095200 0.161716
H 0.817600 0.095200 0.904800 0.161716
H 0.817600 0.904800 0.904800 0.161716
H 0.817600 0.095200 0.095200 0.161716
H 0.182400 0.095200 0.095200 0.161716
H 0.182400 0.904800 0.904800 0.161716
H 0.182400 0.095200 0.904800 0.161716
H 0.182400 0.904800 0.095200 0.161716
H 0.000000 0.838600 0.195200 0.136655
H 0.000000 0.523900 0.753600 0.132452
H 0.000000 0.161400 0.804800 0.136655
H 0.000000 0.476100 0.246400 0.132452
H 0.000000 0.804800 0.838600 0.136655
H 0.000000 0.246400 0.523900 0.132452
H 0.000000 0.195200 0.161400 0.136655
H 0.000000 0.753600 0.476100 0.132452
H 0.000000 0.161400 0.195200 0.136655
H 0.000000 0.476100 0.753600 0.132452
H 0.000000 0.838600 0.804800 0.136655
H 0.000000 0.523900 0.246400 0.132452
H 0.000000 0.195200 0.838600 0.136655
H 0.000000 0.753600 0.523900 0.132452
H 0.000000 0.804800 0.161400 0.136655
H 0.000000 0.246400 0.476100 0.132452
H 0.815600 0.500000 0.636100 0.159421
H 0.815600 0.500000 0.363900 0.159421
H 0.815600 0.363900 0.500000 0.159421
H 0.815600 0.636100 0.500000 0.159421
H 0.184400 0.500000 0.636100 0.159421
H 0.184400 0.500000 0.363900 0.159421
H 0.184400 0.636100 0.500000 0.159421
H 0.184400 0.363900 0.500000 0.159421
C 0.704100 0.742900 0.912200 0.058832
C 0.655900 0.761900 0.893200 -0.008616
C 0.629500 0.740700 0.859400 0.053697
C 0.650600 0.701900 0.848800 -0.077716
C 0.697500 0.683400 0.868100 0.062786
C 0.723300 0.704900 0.900500 -0.088640
C 0.703200 0.617800 0.744000 0.054912
C 0.656800 0.593100 0.744100 -0.011312
C 0.631700 0.582500 0.781500 0.056198
C 0.649500 0.597200 0.818400 -0.087225
C 0.699700 0.622400 0.819700 0.064418
C 0.724300 0.634000 0.781400 -0.089524
C 0.718500 0.639800 0.859100 -0.355221
C 0.733400 0.765700 0.946200 0.495113
C 0.580700 0.761700 0.836100 0.470559
C 0.738500 0.627900 0.706400 0.491116
C 0.578600 0.552500 0.781200 0.474316
C 0.842900 0.837100 0.055200 0.494364
C 0.872200 0.855500 0.094300 0.054745
C 0.923300 0.836200 0.111100 -0.074131
C 0.842900 0.576400 0.655300 0.482027
C 0.873900 0.536800 0.669300 0.055738
C 0.920800 0.537500 0.697800 -0.074928
C 0.704100 0.257100 0.087800 0.058832
C 0.655900 0.238100 0.106800 -0.008616
C 0.629500 0.259300 0.140600 0.053697
C 0.650600 0.298100 0.151200 -0.077716
C 0.697500 0.316600 0.131900 0.062786
C 0.723300 0.295100 0.099500 -0.088640
C 0.703200 0.382200 0.256000 0.054912
C 0.656800 0.406900 0.255900 -0.011312
C 0.631700 0.417500 0.218500 0.056198
C 0.649500 0.402800 0.181600 -0.087225
C 0.699700 0.377600 0.180300 0.064418
C 0.724300 0.366000 0.218600 -0.089524
C 0.718500 0.360200 0.140900 -0.355221
C 0.733400 0.234300 0.053800 0.495113
C 0.580700 0.238300 0.163900 0.470559
C 0.738500 0.372100 0.293600 0.491116
C 0.578600 0.447500 0.218800 0.474316
C 0.842900 0.162900 0.944800 0.494364
C 0.872200 0.144500 0.905700 0.054745
C 0.923300 0.163800 0.888900 -0.074131
C 0.842900 0.423600 0.344700 0.482027
C 0.873900 0.463200 0.330700 0.055738
C 0.920800 0.462500 0.302200 -0.074928
C 0.704100 0.087800 0.742900 0.058832
C 0.655900 0.106800 0.761900 -0.008616
C 0.629500 0.140600 0.740700 0.053697
C 0.650600 0.151200 0.701900 -0.077716
C 0.697500 0.131900 0.683400 0.062786
C 0.723300 0.099500 0.704900 -0.088640
C 0.703200 0.256000 0.617800 0.054912
C 0.656800 0.255900 0.593100 -0.011312
C 0.631700 0.218500 0.582500 0.056198
C 0.649500 0.181600 0.597200 -0.087225
C 0.699700 0.180300 0.622400 0.064418
C 0.724300 0.218600 0.634000 -0.089524
C 0.718500 0.140900 0.639800 -0.355221
C 0.733400 0.053800 0.765700 0.495113
C 0.580700 0.163900 0.761700 0.470559
C 0.738500 0.293600 0.627900 0.491116
C 0.578600 0.218800 0.552500 0.474316
C 0.842900 0.944800 0.837100 0.494364
C 0.872200 0.905700 0.855500 0.054745
C 0.923300 0.888900 0.836200 -0.074131
C 0.842900 0.344700 0.576400 0.482027
C 0.873900 0.330700 0.536800 0.055738
C 0.920800 0.302200 0.537500 -0.074928
C 0.704100 0.912200 0.257100 0.058832
C 0.655900 0.893200 0.238100 -0.008616
C 0.629500 0.859400 0.259300 0.053697
C 0.650600 0.848800 0.298100 -0.077716
C 0.697500 0.868100 0.316600 0.062786
C 0.723300 0.900500 0.295100 -0.088640
C 0.703200 0.744000 0.382200 0.054912
C 0.656800 0.744100 0.406900 -0.011312
C 0.631700 0.781500 0.417500 0.056198
C 0.649500 0.818400 0.402800 -0.087225
C 0.699700 0.819700 0.377600 0.064418
C 0.724300 0.781400 0.366000 -0.089524
C 0.718500 0.859100 0.360200 -0.355221
C 0.733400 0.946200 0.234300 0.495113
C 0.580700 0.836100 0.238300 0.470559
C 0.738500 0.706400 0.372100 0.491116
C 0.578600 0.781200 0.447500 0.474316
C 0.842900 0.055200 0.162900 0.494364
C 0.872200 0.094300 0.144500 0.054745
C 0.923300 0.111100 0.163800 -0.074131
C 0.842900 0.655300 0.423600 0.482027
C 0.873900 0.669300 0.463200 0.055738
C 0.920800 0.697800 0.462500 -0.074928
C 0.295900 0.257100 0.912200 0.058832
C 0.344100 0.238100 0.893200 -0.008616
C 0.370500 0.259300 0.859400 0.053697
C 0.349400 0.298100 0.848800 -0.077716
C 0.302500 0.316600 0.868100 0.062786
C 0.276700 0.295100 0.900500 -0.088640
C 0.296800 0.382200 0.744000 0.054912
C 0.343200 0.406900 0.744100 -0.011312
C 0.368300 0.417500 0.781500 0.056198
C 0.350500 0.402800 0.818400 -0.087225
C 0.300300 0.377600 0.819700 0.064418
C 0.275700 0.366000 0.781400 -0.089524
C 0.281500 0.360200 0.859100 -0.355221
C 0.266600 0.234300 0.946200 0.495113
C 0.419300 0.238300 0.836100 0.470559
C 0.261500 0.372100 0.706400 0.491116
C 0.421400 0.447500 0.781200 0.474316
C 0.157100 0.162900 0.055200 0.494364
C 0.127800 0.144500 0.094300 0.054745
C 0.076700 0.163800 0.111100 -0.074131
C 0.157100 0.423600 0.655300 0.482027
C 0.126100 0.463200 0.669300 0.055738
C 0.079200 0.462500 0.697800 -0.074928
C 0.295900 0.742900 0.087800 0.058832
C 0.344100 0.761900 0.106800 -0.008616
C 0.370500 0.740700 0.140600 0.053697
C 0.349400 0.701900 0.151200 -0.077716
C 0.302500 0.683400 0.131900 0.062786
C 0.276700 0.704900 0.099500 -0.088640
C 0.296800 0.617800 0.256000 0.054912
C 0.343200 0.593100 0.255900 -0.011312
C 0.368300 0.582500 0.218500 0.056198
C 0.350500 0.597200 0.181600 -0.087225
C 0.300300 0.622400 0.180300 0.064418
C 0.275700 0.634000 0.218600 -0.089524
C 0.281500 0.639800 0.140900 -0.355221
C 0.266600 0.765700 0.053800 0.495113
C 0.419300 0.761700 0.163900 0.470559
C 0.261500 0.627900 0.293600 0.491116
C 0.421400 0.552500 0.218800 0.474316
C 0.157100 0.837100 0.944800 0.494364
C 0.127800 0.855500 0.905700 0.054745
C 0.076700 0.836200 0.888900 -0.074131
C 0.157100 0.576400 0.344700 0.482027
C 0.126100 0.536800 0.330700 0.055738
C 0.079200 0.537500 0.302200 -0.074928
C 0.295900 0.912200 0.742900 0.058832
C 0.344100 0.893200 0.761900 -0.008616
C 0.370500 0.859400 0.740700 0.053697
C 0.349400 0.848800 0.701900 -0.077716
C 0.302500 0.868100 0.683400 0.062786
C 0.276700 0.900500 0.704900 -0.088640
C 0.296800 0.744000 0.617800 0.054912
C 0.343200 0.744100 0.593100 -0.011312
C 0.368300 0.781500 0.582500 0.056198
C 0.350500 0.818400 0.597200 -0.087225
C 0.300300 0.819700 0.622400 0.064418
C 0.275700 0.781400 0.634000 -0.089524
C 0.281500 0.859100 0.639800 -0.355221
C 0.266600 0.946200 0.765700 0.495113
C 0.419300 0.836100 0.761700 0.470559
C 0.261500 0.706400 0.627900 0.491116
C 0.421400 0.781200 0.552500 0.474316
C 0.157100 0.055200 0.837100 0.494364
C 0.127800 0.094300 0.855500 0.054745
C 0.076700 0.111100 0.836200 -0.074131
C 0.157100 0.655300 0.576400 0.482027
C 0.126100 0.669300 0.536800 0.055738
C 0.079200 0.697800 0.537500 -0.074928
C 0.295900 0.087800 0.257100 0.058832
C 0.344100 0.106800 0.238100 -0.008616
C 0.370500 0.140600 0.259300 0.053697
C 0.349400 0.151200 0.298100 -0.077716
C 0.302500 0.131900 0.316600 0.062786
C 0.276700 0.099500 0.295100 -0.088640
C 0.296800 0.256000 0.382200 0.054912
C 0.343200 0.255900 0.406900 -0.011312
C 0.368300 0.218500 0.417500 0.056198
C 0.350500 0.181600 0.402800 -0.087225
C 0.300300 0.180300 0.377600 0.064418
C 0.275700 0.218600 0.366000 -0.089524
C 0.281500 0.140900 0.360200 -0.355221
C 0.266600 0.053800 0.234300 0.495113
C 0.419300 0.163900 0.238300 0.470559
C 0.261500 0.293600 0.372100 0.491116
C 0.421400 0.218800 0.447500 0.474316
C 0.157100 0.944800 0.162900 0.494364
C 0.127800 0.905700 0.144500 0.054745
C 0.076700 0.888900 0.163800 -0.074131
C 0.157100 0.344700 0.423600 0.482027
C 0.126100 0.330700 0.463200 0.055738
C 0.079200 0.302200 0.462500 -0.074928
C 0.295900 0.257100 0.087800 0.058832
C 0.344100 0.238100 0.106800 -0.008616
C 0.370500 0.259300 0.140600 0.053697
C 0.349400 0.298100 0.151200 -0.077716
C 0.302500 0.316600 0.131900 0.062786
C 0.276700 0.295100 0.099500 -0.088640
C 0.296800 0.382200 0.256000 0.054912
C 0.343200 0.406900 0.255900 -0.011312
C 0.368300 0.417500 0.218500 0.056198
C 0.350500 0.402800 0.181600 -0.087225
C 0.300300 0.377600 0.180300 0.064418
C 0.275700 0.366000 0.218600 -0.089524
C 0.281500 0.360200 0.140900 -0.355221
C 0.266600 0.234300 0.053800 0.495113
C 0.419300 0.238300 0.163900 0.470559
C 0.261500 0.372100 0.293600 0.491116
C 0.421400 0.447500 0.218800 0.474316
C 0.157100 0.162900 0.944800 0.494364
C 0.127800 0.144500 0.905700 0.054745
C 0.076700 0.163800 0.888900 -0.074131
C 0.157100 0.423600 0.344700 0.482027
C 0.126100 0.463200 0.330700 0.055738
C 0.079200 0.462500 0.302200 -0.074928
C 0.295900 0.742900 0.912200 0.058832
C 0.344100 0.761900 0.893200 -0.008616
C 0.370500 0.740700 0.859400 0.053697
C 0.349400 0.701900 0.848800 -0.077716
C 0.302500 0.683400 0.868100 0.062786
C 0.276700 0.704900 0.900500 -0.088640
C 0.296800 0.617800 0.744000 0.054912
C 0.343200 0.593100 0.744100 -0.011312
C 0.368300 0.582500 0.781500 0.056198
C 0.350500 0.597200 0.818400 -0.087225
C 0.300300 0.622400 0.819700 0.064418
C 0.275700 0.634000 0.781400 -0.089524
C 0.281500 0.639800 0.859100 -0.355221
C 0.266600 0.765700 0.946200 0.495113
C 0.419300 0.761700 0.836100 0.470559
C 0.261500 0.627900 0.706400 0.491116
C 0.421400 0.552500 0.781200 0.474316
C 0.157100 0.837100 0.055200 0.494364
C 0.127800 0.855500 0.094300 0.054745
C 0.076700 0.836200 0.111100 -0.074131
C 0.157100 0.576400 0.655300 0.482027
C 0.126100 0.536800 0.669300 0.055738
C 0.079200 0.537500 0.697800 -0.074928
C 0.295900 0.912200 0.257100 0.058832
C 0.344100 0.893200 0.238100 -0.008616
C 0.370500 0.859400 0.259300 0.053697
C 0.349400 0.848800 0.298100 -0.077716
C 0.302500 0.868100 0.316600 0.062786
C 0.276700 0.900500 0.295100 -0.088640
C 0.296800 0.744000 0.382200 0.054912
C 0.343200 0.744100 0.406900 -0.011312
C 0.368300 0.781500 0.417500 0.056198
C 0.350500 0.818400 0.402800 -0.087225
C 0.300300 0.819700 0.377600 0.064418
C 0.275700 0.781400 0.366000 -0.089524
C 0.281500 0.859100 0.360200 -0.355221
C 0.266600 0.946200 0.234300 0.495113
C 0.419300 0.836100 0.238300 0.470559
C 0.261500 0.706400 0.372100 0.491116
C 0.421400 0.781200 0.447500 0.474316
C 0.157100 0.055200 0.162900 0.494364
C 0.127800 0.094300 0.144500 0.054745
C 0.076700 0.111100 0.163800 -0.074131
C 0.157100 0.655300 0.423600 0.482027
C 0.126100 0.669300 0.463200 0.055738
C 0.079200 0.697800 0.462500 -0.074928
C 0.295900 0.087800 0.742900 0.058832
C 0.344100 0.106800 0.761900 -0.008616
C 0.370500 0.140600 0.740700 0.053697
C 0.349400 0.151200 0.701900 -0.077716
C 0.302500 0.131900 0.683400 0.062786
C 0.276700 0.099500 0.704900 -0.088640
C 0.296800 0.256000 0.617800 0.054912
C 0.343200 0.255900 0.593100 -0.011312
C 0.368300 0.218500 0.582500 0.056198
C 0.350500 0.181600 0.597200 -0.087225
C 0.300300 0.180300 0.622400 0.064418
C 0.275700 0.218600 0.634000 -0.089524
C 0.281500 0.140900 0.639800 -0.355221
C 0.266600 0.053800 0.765700 0.495113
C 0.419300 0.163900 0.761700 0.470559
C 0.261500 0.293600 0.627900 0.491116
C 0.421400 0.218800 0.552500 0.474316
C 0.157100 0.944800 0.837100 0.494364
C 0.127800 0.905700 0.855500 0.054745
C 0.076700 0.888900 0.836200 -0.074131
C 0.157100 0.344700 0.576400 0.482027
C 0.126100 0.330700 0.536800 0.055738
C 0.079200 0.302200 0.537500 -0.074928
C 0.704100 0.742900 0.087800 0.058832
C 0.655900 0.761900 0.106800 -0.008616
C 0.629500 0.740700 0.140600 0.053697
C 0.650600 0.701900 0.151200 -0.077716
C 0.697500 0.683400 0.131900 0.062786
C 0.723300 0.704900 0.099500 -0.088640
C 0.703200 0.617800 0.256000 0.054912
C 0.656800 0.593100 0.255900 -0.011312
C 0.631700 0.582500 0.218500 0.056198
C 0.649500 0.597200 0.181600 -0.087225
C 0.699700 0.622400 0.180300 0.064418
C 0.724300 0.634000 0.218600 -0.089524
C 0.718500 0.639800 0.140900 -0.355221
C 0.733400 0.765700 0.053800 0.495113
C 0.580700 0.761700 0.163900 0.470559
C 0.738500 0.627900 0.293600 0.491116
C 0.578600 0.552500 0.218800 0.474316
C 0.842900 0.837100 0.944800 0.494364
C 0.872200 0.855500 0.905700 0.054745
C 0.923300 0.836200 0.888900 -0.074131
C 0.842900 0.576400 0.344700 0.482027
C 0.873900 0.536800 0.330700 0.055738
C 0.920800 0.537500 0.302200 -0.074928
C 0.704100 0.257100 0.912200 0.058832
C 0.655900 0.238100 0.893200 -0.008616
C 0.629500 0.259300 0.859400 0.053697
C 0.650600 0.298100 0.848800 -0.077716
C 0.697500 0.316600 0.868100 0.062786
C 0.723300 0.295100 0.900500 -0.088640
C 0.703200 0.382200 0.744000 0.054912
C 0.656800 0.406900 0.744100 -0.011312
C 0.631700 0.417500 0.781500 0.056198
C 0.649500 0.402800 0.818400 -0.087225
C 0.699700 0.377600 0.819700 0.064418
C 0.724300 0.366000 0.781400 -0.089524
C 0.718500 0.360200 0.859100 -0.355221
C 0.733400 0.234300 0.946200 0.495113
C 0.580700 0.238300 0.836100 0.470559
C 0.738500 0.372100 0.706400 0.491116
C 0.578600 0.447500 0.781200 0.474316
C 0.842900 0.162900 0.055200 0.494364
C 0.872200 0.144500 0.094300 0.054745
C 0.923300 0.163800 0.111100 -0.074131
C 0.842900 0.423600 0.655300 0.482027
C 0.873900 0.463200 0.669300 0.055738
C 0.920800 0.462500 0.697800 -0.074928
C 0.704100 0.087800 0.257100 0.058832
C 0.655900 0.106800 0.238100 -0.008616
C 0.629500 0.140600 0.259300 0.053697
C 0.650600 0.151200 0.298100 -0.077716
C 0.697500 0.131900 0.316600 0.062786
C 0.723300 0.099500 0.295100 -0.088640
C 0.703200 0.256000 0.382200 0.054912
C 0.656800 0.255900 0.406900 -0.011312
C 0.631700 0.218500 0.417500 0.056198
C 0.649500 0.181600 0.402800 -0.087225
C 0.699700 0.180300 0.377600 0.064418
C 0.724300 0.218600 0.366000 -0.089524
C 0.718500 0.140900 0.360200 -0.355221
C 0.733400 0.053800 0.234300 0.495113
C 0.580700 0.163900 0.238300 0.470559
C 0.738500 0.293600 0.372100 0.491116
C 0.578600 0.218800 0.447500 0.474316
C 0.842900 0.944800 0.162900 0.494364
C 0.872200 0.905700 0.144500 0.054745
C 0.923300 0.888900 0.163800 -0.074131
C 0.842900 0.344700 0.423600 0.482027
C 0.873900 0.330700 0.463200 0.055738
C 0.920800 0.302200 0.462500 -0.074928
C 0.704100 0.912200 0.742900 0.058832
C 0.655900 0.893200 0.761900 -0.008616
C 0.629500 0.859400 0.740700 0.053697
C 0.650600 0.848800 0.701900 -0.077716
C 0.697500 0.868100 0.683400 0.062786
C 0.723300 0.900500 0.704900 -0.088640
C 0.703200 0.744000 0.617800 0.054912
C 0.656800 0.744100 0.593100 -0.011312
C 0.631700 0.781500 0.582500 0.056198
C 0.649500 0.818400 0.597200 -0.087225
C 0.699700 0.819700 0.622400 0.064418
C 0.724300 0.781400 0.634000 -0.089524
C 0.718500 0.859100 0.639800 -0.355221
C 0.733400 0.946200 0.765700 0.495113
C 0.580700 0.836100 0.761700 0.470559
C 0.738500 0.706400 0.627900 0.491116
C 0.578600 0.781200 0.552500 0.474316
C 0.842900 0.055200 0.837100 0.494364
C 0.872200 0.094300 0.855500 0.054745
C 0.923300 0.111100 0.836200 -0.074131
C 0.842900 0.655300 0.576400 0.482027
C 0.873900 0.669300 0.536800 0.055738
C 0.920800 0.697800 0.537500 -0.074928
C 0.848000 0.891300 0.108700 -0.003079
C 0.945000 0.852800 0.147200 0.061019
C 0.848000 0.108700 0.891300 -0.003079
C 0.945000 0.147200 0.852800 0.061019
C 0.848000 0.891300 0.891300 -0.003079
C 0.945000 0.852800 0.852800 0.061019
C 0.848000 0.108700 0.108700 -0.003079
C 0.945000 0.147200 0.147200 0.061019
C 0.152000 0.108700 0.108700 -0.003079
C 0.055000 0.147200 0.147200 0.061019
C 0.152000 0.891300 0.891300 -0.003079
C 0.055000 0.852800 0.852800 0.061019
C 0.152000 0.108700 0.891300 -0.003079
C 0.055000 0.147200 0.852800 0.061019
C 0.152000 0.891300 0.108700 -0.003079
C 0.055000 0.852800 0.147200 0.061019
C 0.000000 0.833900 0.166100 -0.355934
C 0.000000 0.166100 0.833900 -0.355934
C 0.000000 0.833900 0.833900 -0.355934
C 0.000000 0.166100 0.166100 -0.355934
C 0.847300 0.500000 0.654100 -0.003317
C 0.945800 0.500000 0.709600 0.064505
C 0.847300 0.500000 0.345900 -0.003317
C 0.945800 0.500000 0.290400 0.064505
C 0.847300 0.345900 0.500000 -0.003317
C 0.945800 0.290400 0.500000 0.064505
C 0.847300 0.654100 0.500000 -0.003317
C 0.945800 0.709600 0.500000 0.064505
C 0.152700 0.500000 0.654100 -0.003317
C 0.054200 0.500000 0.709600 0.064505
C 0.152700 0.500000 0.345900 -0.003317
C 0.054200 0.500000 0.290400 0.064505
C 0.152700 0.654100 0.500000 -0.003317
C 0.054200 0.709600 0.500000 0.064505
C 0.152700 0.345900 0.500000 -0.003317
C 0.054200 0.290400 0.500000 0.064505
C 0.000000 0.500000 0.736300 -0.360845
C 0.000000 0.500000 0.263700 -0.360845
C 0.000000 0.263700 0.500000 -0.360845
C 0.000000 0.736300 0.500000 -0.360845
O 0.710600 0.797300 0.957600 -0.634773
O 0.779400 0.748000 0.958100 -0.651236
O 0.562100 0.744100 0.804800 -0.615292
O 0.559900 0.793800 0.852600 -0.626250
O 0.783500 0.649100 0.709000 -0.653206
O 0.714700 0.614700 0.674500 -0.629346
O 0.560600 0.541000 0.816000 -0.643987
O 0.561300 0.541900 0.746200 -0.624860
O 0.799600 0.854100 0.042600 -0.653935
O 0.869600 0.804800 0.042800 -0.628574
O 0.870000 0.608300 0.668800 -0.612897
O 0.801400 0.574400 0.631700 -0.643886
O 0.710600 0.202700 0.042400 -0.634773
O 0.779400 0.252000 0.041900 -0.651236
O 0.562100 0.255900 0.195200 -0.615292
O 0.559900 0.206200 0.147400 -0.626250
O 0.783500 0.350900 0.291000 -0.653206
O 0.714700 0.385300 0.325500 -0.629346
O 0.560600 0.459000 0.184000 -0.643987
O 0.561300 0.458100 0.253800 -0.624860
O 0.799600 0.145900 0.957400 -0.653935
O 0.869600 0.195200 0.957200 -0.628574
O 0.870000 0.391700 0.331200 -0.612897
O 0.801400 0.425600 0.368300 -0.643886
O 0.710600 0.042400 0.797300 -0.634773
O 0.779400 0.041900 0.748000 -0.651236
O 0.562100 0.195200 0.744100 -0.615292
O 0.559900 0.147400 0.793800 -0.626250
O 0.783500 0.291000 0.649100 -0.653206
O 0.714700 0.325500 0.614700 -0.629346
O 0.560600 0.184000 0.541000 -0.643987
O 0.561300 0.253800 0.541900 -0.624860
O 0.799600 0.957400 0.854100 -0.653935
O 0.869600 0.957200 0.804800 -0.628574
O 0.870000 0.331200 0.608300 -0.612897
O 0.801400 0.368300 0.574400 -0.643886
O 0.710600 0.957600 0.202700 -0.634773
O 0.779400 0.958100 0.252000 -0.651236
O 0.562100 0.804800 0.255900 -0.615292
O 0.559900 0.852600 0.206200 -0.626250
O 0.783500 0.709000 0.350900 -0.653206
O 0.714700 0.674500 0.385300 -0.629346
O 0.560600 0.816000 0.459000 -0.643987
O 0.561300 0.746200 0.458100 -0.624860
O 0.799600 0.042600 0.145900 -0.653935
O 0.869600 0.042800 0.195200 -0.628574
O 0.870000 0.668800 0.391700 -0.612897
O 0.801400 0.631700 0.425600 -0.643886
O 0.289400 0.202700 0.957600 -0.634773
O 0.220600 0.252000 0.958100 -0.651236
O 0.437900 0.255900 0.804800 -0.615292
O 0.440100 0.206200 0.852600 -0.626250
O 0.216500 0.350900 0.709000 -0.653206
O 0.285300 0.385300 0.674500 -0.629346
O 0.439400 0.459000 0.816000 -0.643987
O 0.438700 0.458100 0.746200 -0.624860
O 0.200400 0.145900 0.042600 -0.653935
O 0.130400 0.195200 0.042800 -0.628574
O 0.130000 0.391700 0.668800 -0.612897
O 0.198600 0.425600 0.631700 -0.643886
O 0.289400 0.797300 0.042400 -0.634773
O 0.220600 0.748000 0.041900 -0.651236
O 0.437900 0.744100 0.195200 -0.615292
O 0.440100 0.793800 0.147400 -0.626250
O 0.216500 0.649100 0.291000 -0.653206
O 0.285300 0.614700 0.325500 -0.629346
O 0.439400 0.541000 0.184000 -0.643987
O 0.438700 0.541900 0.253800 -0.624860
O 0.200400 0.854100 0.957400 -0.653935
O 0.130400 0.804800 0.957200 -0.628574
O 0.130000 0.608300 0.331200 -0.612897
O 0.198600 0.574400 0.368300 -0.643886
O 0.289400 0.957600 0.797300 -0.634773
O 0.220600 0.958100 0.748000 -0.651236
O 0.437900 0.804800 0.744100 -0.615292
O 0.440100 0.852600 0.793800 -0.626250
O 0.216500 0.709000 0.649100 -0.653206
O 0.285300 0.674500 0.614700 -0.629346
O 0.439400 0.816000 0.541000 -0.643987
O 0.438700 0.746200 0.541900 -0.624860
O 0.200400 0.042600 0.854100 -0.653935
O 0.130400 0.042800 0.804800 -0.628574
O 0.130000 0.668800 0.608300 -0.612897
O 0.198600 0.631700 0.574400 -0.643886
O 0.289400 0.042400 0.202700 -0.634773
O 0.220600 0.041900 0.252000 -0.651236
O 0.437900 0.195200 0.255900 -0.615292
O 0.440100 0.147400 0.206200 -0.626250
O 0.216500 0.291000 0.350900 -0.653206
O 0.285300 0.325500 0.385300 -0.629346
O 0.439400 0.184000 0.459000 -0.643987
O 0.438700 0.253800 0.458100 -0.624860
O 0.200400 0.957400 0.145900 -0.653935
O 0.130400 0.957200 0.195200 -0.628574
O 0.130000 0.331200 0.391700 -0.612897
O 0.198600 0.368300 0.425600 -0.643886
O 0.289400 0.202700 0.042400 -0.634773
O 0.220600 0.252000 0.041900 -0.651236
O 0.437900 0.255900 0.195200 -0.615292
O 0.440100 0.206200 0.147400 -0.626250
O 0.216500 0.350900 0.291000 -0.653206
O 0.285300 0.385300 0.325500 -0.629346
O 0.439400 0.459000 0.184000 -0.643987
O 0.438700 0.458100 0.253800 -0.624860
O 0.200400 0.145900 0.957400 -0.653935
O 0.130400 0.195200 0.957200 -0.628574
O 0.130000 0.391700 0.331200 -0.612897
O 0.198600 0.425600 0.368300 -0.643886
O 0.289400 0.797300 0.957600 -0.634773
O 0.220600 0.748000 0.958100 -0.651236
O 0.437900 0.744100 0.804800 -0.615292
O 0.440100 0.793800 0.852600 -0.626250
O 0.216500 0.649100 0.709000 -0.653206
O 0.285300 0.614700 0.674500 -0.629346
O 0.439400 0.541000 0.816000 -0.643987
O 0.438700 0.541900 0.746200 -0.624860
O 0.200400 0.854100 0.042600 -0.653935
O 0.130400 0.804800 0.042800 -0.628574
O 0.130000 0.608300 0.668800 -0.612897
O 0.198600 0.574400 0.631700 -0.643886
O 0.289400 0.957600 0.202700 -0.634773
O 0.220600 0.958100 0.252000 -0.651236
O 0.437900 0.804800 0.255900 -0.615292
O 0.440100 0.852600 0.206200 -0.626250
O 0.216500 0.709000 0.350900 -0.653206
O 0.285300 0.674500 0.385300 -0.629346
O 0.439400 0.816000 0.459000 -0.643987
O 0.438700 0.746200 0.458100 -0.624860
O 0.200400 0.042600 0.145900 -0.653935
O 0.130400 0.042800 0.195200 -0.628574
O 0.130000 0.668800 0.391700 -0.612897
O 0.198600 0.631700 0.425600 -0.643886
O 0.289400 0.042400 0.797300 -0.634773
O 0.220600 0.041900 0.748000 -0.651236
O 0.437900 0.195200 0.744100 -0.615292
O 0.440100 0.147400 0.793800 -0.626250
O 0.216500 0.291000 0.649100 -0.653206
O 0.285300 0.325500 0.614700 -0.629346
O 0.439400 0.184000 0.541000 -0.643987
O 0.438700 0.253800 0.541900 -0.624860
O 0.200400 0.957400 0.854100 -0.653935
O 0.130400 0.957200 0.804800 -0.628574
O 0.130000 0.331200 0.608300 -0.612897
O 0.198600 0.368300 0.574400 -0.643886
O 0.710600 0.797300 0.042400 -0.634773
O 0.779400 0.748000 0.041900 -0.651236
O 0.562100 0.744100 0.195200 -0.615292
O 0.559900 0.793800 0.147400 -0.626250
O 0.783500 0.649100 0.291000 -0.653206
O 0.714700 0.614700 0.325500 -0.629346
O 0.560600 0.541000 0.184000 -0.643987
O 0.561300 0.541900 0.253800 -0.624860
O 0.799600 0.854100 0.957400 -0.653935
O 0.869600 0.804800 0.957200 -0.628574
O 0.870000 0.608300 0.331200 -0.612897
O 0.801400 0.574400 0.368300 -0.643886
O 0.710600 0.202700 0.957600 -0.634773
O 0.779400 0.252000 0.958100 -0.651236
O 0.562100 0.255900 0.804800 -0.615292
O 0.559900 0.206200 0.852600 -0.626250
O 0.783500 0.350900 0.709000 -0.653206
O 0.714700 0.385300 0.674500 -0.629346
O 0.560600 0.459000 0.816000 -0.643987
O 0.561300 0.458100 0.746200 -0.624860
O 0.799600 0.145900 0.042600 -0.653935
O 0.869600 0.195200 0.042800 -0.628574
O 0.870000 0.391700 0.668800 -0.612897
O 0.801400 0.425600 0.631700 -0.643886
O 0.710600 0.042400 0.202700 -0.634773
O 0.779400 0.041900 0.252000 -0.651236
O 0.562100 0.195200 0.255900 -0.615292
O 0.559900 0.147400 0.206200 -0.626250
O 0.783500 0.291000 0.350900 -0.653206
O 0.714700 0.325500 0.385300 -0.629346
O 0.560600 0.184000 0.459000 -0.643987
O 0.561300 0.253800 0.458100 -0.624860
O 0.799600 0.957400 0.145900 -0.653935
O 0.869600 0.957200 0.195200 -0.628574
O 0.870000 0.331200 0.391700 -0.612897
O 0.801400 0.368300 0.425600 -0.643886
O 0.710600 0.957600 0.797300 -0.634773
O 0.779400 0.958100 0.748000 -0.651236
O 0.562100 0.804800 0.744100 -0.615292
O 0.559900 0.852600 0.793800 -0.626250
O 0.783500 0.709000 0.649100 -0.653206
O 0.714700 0.674500 0.614700 -0.629346
O 0.560600 0.816000 0.541000 -0.643987
O 0.561300 0.746200 0.541900 -0.624860
O 0.799600 0.042600 0.854100 -0.653935
O 0.869600 0.042800 0.804800 -0.628574
O 0.870000 0.668800 0.608300 -0.612897
O 0.801400 0.631700 0.574400 -0.643886
