data_OCUNAC_clean5b_PM
_symmetry_space_group_name_H-M   'P 1'
_cell_length_a 62.839900
_cell_length_b 62.839900
_cell_length_c 62.839900
_cell_angle_alpha 60.000000
_cell_angle_beta 60.000000
_cell_angle_gamma 60.000000
_symmetry_Int_Tables_number 1

loop_
_symmetry_equiv_pos_as_xyz
 'x, y, z'

loop_
_atom_site_label
_atom_site_fract_x
_atom_site_fract_y
_atom_site_fract_z
_atom_site_charge
Cr 0.114230 0.283840 0.657700 -2.344751
Cr 0.306560 0.359630 0.530340 -2.295118
C 0.422400 0.460920 0.547230 -0.052237
C 0.361020 0.399550 0.512470 -0.051814
C 0.376030 0.414550 0.504030 -0.052721
C 0.316790 0.405210 0.427460 -0.050656
C 0.312270 0.382200 0.474890 0.275960
C 0.310890 0.406410 0.451670 0.010640
C 0.304580 0.430680 0.453040 -0.053568
C 0.185940 0.208370 0.648430 -0.049861
C 0.159360 0.253050 0.625010 0.282189
C 0.182180 0.227950 0.624940 0.011640
C 0.201450 0.223900 0.601430 -0.050704
C 0.162970 0.267990 0.705160 -0.052790
C 0.144040 0.299610 0.668310 0.273881
C 0.158700 0.292400 0.685300 0.010798
C 0.176810 0.261520 0.720830 -0.050686
C 0.203100 0.271990 0.732610 0.281248
C 0.186750 0.279270 0.717260 0.010842
C 0.168510 0.310160 0.681900 -0.055078
C 0.182220 0.303740 0.697570 -0.049921
C 0.284250 0.322640 0.620990 -0.052671
C 0.275200 0.313630 0.648410 -0.050358
C 0.322240 0.241940 0.536320 -0.050410
C 0.341660 0.273040 0.528300 0.278804
C 0.339720 0.246720 0.539870 0.010733
C 0.318890 0.217500 0.549380 -0.056533
C 0.077960 0.332570 0.668080 0.280078
C 0.332990 0.197470 0.566150 0.009890
C 0.354380 0.226380 0.555920 -0.053367
C 0.351110 0.202130 0.568810 -0.045907
O 0.425590 0.461030 0.502140 0.274721
O 0.333270 0.368830 0.525250 0.281521
O 0.408010 0.443520 0.484770 0.274918
O 0.306370 0.383700 0.496730 0.276705
O 0.360820 0.319690 0.471760 0.278074
O 0.143410 0.256260 0.646810 0.289240
O 0.092850 0.280980 0.646700 0.288226
O 0.133960 0.283900 0.672770 0.284189
O 0.142050 0.321490 0.650000 0.270462
O 0.207970 0.249270 0.749400 0.288879
O 0.212180 0.288670 0.727710 0.286630
O 0.303790 0.339260 0.565560 0.277457
O 0.258010 0.293460 0.702490 0.284803
O 0.331120 0.290160 0.511110 0.278109
O 0.277460 0.353320 0.536570 0.281518
O 0.084100 0.308550 0.672270 0.285414
O 0.157370 0.339070 0.599430 0.283649
H 0.407290 0.476220 0.539020 0.130562
H 0.340370 0.409170 0.515320 0.129519
H 0.366490 0.435290 0.500730 0.129318
H 0.321740 0.386950 0.425540 0.132248
H 0.299990 0.432360 0.471310 0.126189
H 0.171760 0.210610 0.666980 0.130271
H 0.199500 0.238420 0.582900 0.129944
H 0.155790 0.253740 0.708490 0.127750
H 0.179980 0.242410 0.735570 0.128172
H 0.165670 0.329170 0.666980 0.128947
H 0.189610 0.317970 0.693940 0.129262
H 0.272420 0.341070 0.610900 0.129816
H 0.256650 0.325490 0.658350 0.130333
H 0.310590 0.257300 0.524080 0.122767
H 0.304830 0.214520 0.546900 0.121991
H 0.368140 0.229280 0.558950 0.134131
H 0.362600 0.187110 0.581310 0.137129
Cr 0.283840 0.114230 0.944230 -2.344473
Cr 0.359630 0.306560 0.803480 -2.294553
C 0.460920 0.422400 0.569440 -0.052212
C 0.399550 0.361020 0.726960 -0.051813
C 0.414550 0.376030 0.705390 -0.052721
C 0.405210 0.316790 0.850540 -0.050705
C 0.382200 0.312270 0.830630 0.276117
C 0.406410 0.310890 0.831040 0.010652
C 0.430680 0.304580 0.811700 -0.053596
C 0.208370 0.185940 0.957260 -0.049820
C 0.253050 0.159360 0.962580 0.282204
C 0.227950 0.182180 0.964940 0.011637
C 0.223900 0.201450 0.973220 -0.050726
C 0.267990 0.162970 0.863890 -0.052789
C 0.299610 0.144040 0.888040 0.273793
C 0.292400 0.158700 0.863600 0.010801
C 0.261520 0.176810 0.840850 -0.050660
C 0.271990 0.203100 0.792300 0.281195
C 0.279270 0.186750 0.816720 0.010836
C 0.310160 0.168510 0.839430 -0.055071
C 0.303740 0.182220 0.816470 -0.049923
C 0.322640 0.284250 0.772120 -0.052729
C 0.313630 0.275200 0.762760 -0.050328
C 0.241940 0.322240 0.899500 -0.050577
C 0.273040 0.341660 0.857000 0.278916
C 0.246720 0.339720 0.873690 0.010752
C 0.217500 0.318890 0.914230 -0.056395
C 0.332570 0.077960 0.921380 0.280003
C 0.197470 0.332990 0.903390 0.009867
C 0.226380 0.354380 0.863310 -0.053488
C 0.202130 0.351110 0.877940 -0.045860
O 0.461030 0.425590 0.611240 0.274773
O 0.368830 0.333270 0.772650 0.281284
O 0.443520 0.408010 0.663700 0.274958
O 0.383700 0.306370 0.813200 0.276693
O 0.319690 0.360820 0.847730 0.278085
O 0.256260 0.143410 0.953520 0.289178
O 0.280980 0.092850 0.979460 0.288359
O 0.283900 0.133960 0.909370 0.284124
O 0.321490 0.142050 0.886470 0.270629
O 0.249270 0.207970 0.793360 0.288867
O 0.288670 0.212180 0.771430 0.286847
O 0.339260 0.303790 0.791400 0.277382
O 0.293460 0.258010 0.746040 0.284794
O 0.290160 0.331120 0.867620 0.278190
O 0.353320 0.277460 0.832640 0.281567
O 0.308550 0.084100 0.935080 0.285371
O 0.339070 0.157370 0.904140 0.283538
H 0.476220 0.407290 0.577470 0.130554
H 0.409170 0.340370 0.735150 0.129493
H 0.435290 0.366490 0.697490 0.129317
H 0.386950 0.321740 0.865770 0.132231
H 0.432360 0.299990 0.796340 0.126167
H 0.210610 0.171760 0.950640 0.130240
H 0.238420 0.199500 0.979180 0.129928
H 0.253740 0.155790 0.881990 0.127756
H 0.242410 0.179980 0.842030 0.128178
H 0.329170 0.165670 0.838190 0.128943
H 0.317970 0.189610 0.798490 0.129245
H 0.341070 0.272420 0.775610 0.129788
H 0.325490 0.256650 0.759510 0.130325
H 0.257300 0.310590 0.908020 0.122764
H 0.214520 0.304830 0.933760 0.121961
H 0.229280 0.368140 0.843630 0.134123
H 0.187110 0.362600 0.868980 0.137133
Cr 0.657700 0.944230 0.114230 -2.344605
Cr 0.530340 0.803480 0.306560 -2.294690
C 0.547230 0.569440 0.422400 -0.052250
C 0.512470 0.726960 0.361020 -0.051921
C 0.504030 0.705390 0.376030 -0.052624
C 0.427460 0.850540 0.316790 -0.050607
C 0.474890 0.830630 0.312270 0.275908
C 0.451670 0.831040 0.310890 0.010616
C 0.453040 0.811700 0.304580 -0.053594
C 0.648430 0.957260 0.185940 -0.049878
C 0.625010 0.962580 0.159360 0.282228
C 0.624940 0.964940 0.182180 0.011653
C 0.601430 0.973220 0.201450 -0.050717
C 0.705160 0.863890 0.162970 -0.052626
C 0.668310 0.888040 0.144040 0.273816
C 0.685300 0.863600 0.158700 0.010775
C 0.720830 0.840850 0.176810 -0.050889
C 0.732610 0.792300 0.203100 0.281248
C 0.717260 0.816720 0.186750 0.010879
C 0.681900 0.839430 0.168510 -0.055072
C 0.697570 0.816470 0.182220 -0.050011
C 0.620990 0.772120 0.284250 -0.052708
C 0.648410 0.762760 0.275200 -0.050341
C 0.536320 0.899500 0.322240 -0.050452
C 0.528300 0.857000 0.341660 0.278890
C 0.539870 0.873690 0.339720 0.010734
C 0.549380 0.914230 0.318890 -0.056449
C 0.668080 0.921380 0.077960 0.280065
C 0.566150 0.903390 0.332990 0.009876
C 0.555920 0.863310 0.354380 -0.053407
C 0.568810 0.877940 0.351110 -0.045908
O 0.502140 0.611240 0.425590 0.274760
O 0.525250 0.772650 0.333270 0.281249
O 0.484770 0.663700 0.408010 0.274994
O 0.496730 0.813200 0.306370 0.276563
O 0.471760 0.847730 0.360820 0.278186
O 0.646810 0.953520 0.143410 0.289211
O 0.646700 0.979460 0.092850 0.288364
O 0.672770 0.909370 0.133960 0.284156
O 0.650000 0.886470 0.142050 0.270489
O 0.749400 0.793360 0.207970 0.288871
O 0.727710 0.771430 0.212180 0.286738
O 0.565560 0.791400 0.303790 0.277310
O 0.702490 0.746040 0.258010 0.284751
O 0.511110 0.867620 0.331120 0.277845
O 0.536570 0.832640 0.277460 0.281715
O 0.672270 0.935080 0.084100 0.285437
O 0.599430 0.904140 0.157370 0.283696
H 0.539020 0.577470 0.407290 0.130574
H 0.515320 0.735150 0.340370 0.129514
H 0.500730 0.697490 0.366490 0.129308
H 0.425540 0.865770 0.321740 0.132243
H 0.471310 0.796340 0.299990 0.126154
H 0.666980 0.950640 0.171760 0.130267
H 0.582900 0.979180 0.199500 0.129948
H 0.708490 0.881990 0.155790 0.127739
H 0.735570 0.842030 0.179980 0.128228
H 0.666980 0.838190 0.165670 0.128969
H 0.693940 0.798490 0.189610 0.129261
H 0.610900 0.775610 0.272420 0.129802
H 0.658350 0.759510 0.256650 0.130323
H 0.524080 0.908020 0.310590 0.122771
H 0.546900 0.933760 0.304830 0.121985
H 0.558950 0.843630 0.368140 0.134139
H 0.581310 0.868980 0.362600 0.137098
Cr 0.944230 0.657700 0.283840 -2.344295
Cr 0.803480 0.530340 0.359630 -2.294894
C 0.569440 0.547230 0.460920 -0.052221
C 0.726960 0.512470 0.399550 -0.051740
C 0.705390 0.504030 0.414550 -0.052754
C 0.850540 0.427460 0.405210 -0.050662
C 0.830630 0.474890 0.382200 0.276002
C 0.831040 0.451670 0.406410 0.010644
C 0.811700 0.453040 0.430680 -0.053587
C 0.957260 0.648430 0.208370 -0.049846
C 0.962580 0.625010 0.253050 0.282121
C 0.964940 0.624940 0.227950 0.011645
C 0.973220 0.601430 0.223900 -0.050701
C 0.863890 0.705160 0.267990 -0.052716
C 0.888040 0.668310 0.299610 0.273724
C 0.863600 0.685300 0.292400 0.010793
C 0.840850 0.720830 0.261520 -0.050712
C 0.792300 0.732610 0.271990 0.281177
C 0.816720 0.717260 0.279270 0.010846
C 0.839430 0.681900 0.310160 -0.055097
C 0.816470 0.697570 0.303740 -0.049971
C 0.772120 0.620990 0.322640 -0.052675
C 0.762760 0.648410 0.313630 -0.050362
C 0.899500 0.536320 0.241940 -0.050628
C 0.857000 0.528300 0.273040 0.278946
C 0.873690 0.539870 0.246720 0.010764
C 0.914230 0.549380 0.217500 -0.056316
C 0.921380 0.668080 0.332570 0.280080
C 0.903390 0.566150 0.197470 0.009843
C 0.863310 0.555920 0.226380 -0.053496
C 0.877940 0.568810 0.202130 -0.045829
O 0.611240 0.502140 0.461030 0.274706
O 0.772650 0.525250 0.368830 0.281268
O 0.663700 0.484770 0.443520 0.274907
O 0.813200 0.496730 0.383700 0.276685
O 0.847730 0.471760 0.319690 0.278356
O 0.953520 0.646810 0.256260 0.289135
O 0.979460 0.646700 0.280980 0.288381
O 0.909370 0.672770 0.283900 0.284077
O 0.886470 0.650000 0.321490 0.270442
O 0.793360 0.749400 0.249270 0.288857
O 0.771430 0.727710 0.288670 0.286811
O 0.791400 0.565560 0.339260 0.277420
O 0.746040 0.702490 0.293460 0.284711
O 0.867620 0.511110 0.290160 0.278163
O 0.832640 0.536570 0.353320 0.281950
O 0.935080 0.672270 0.308550 0.285286
O 0.904140 0.599430 0.339070 0.283600
H 0.577470 0.539020 0.476220 0.130545
H 0.735150 0.515320 0.409170 0.129496
H 0.697490 0.500730 0.435290 0.129315
H 0.865770 0.425540 0.386950 0.132245
H 0.796340 0.471310 0.432360 0.126176
H 0.950640 0.666980 0.210610 0.130248
H 0.979180 0.582900 0.238420 0.129934
H 0.881990 0.708490 0.253740 0.127758
H 0.842030 0.735570 0.242410 0.128188
H 0.838190 0.666980 0.329170 0.128943
H 0.798490 0.693940 0.317970 0.129247
H 0.775610 0.610900 0.341070 0.129805
H 0.759510 0.658350 0.325490 0.130323
H 0.908020 0.524080 0.257300 0.122795
H 0.933760 0.546900 0.214520 0.121952
H 0.843630 0.558950 0.229280 0.134131
H 0.868980 0.581310 0.187110 0.137144
Cr 0.657700 0.114230 0.283840 -2.344751
Cr 0.530340 0.306560 0.359630 -2.295118
C 0.547230 0.422400 0.460920 -0.052237
C 0.512470 0.361020 0.399550 -0.051814
C 0.504030 0.376030 0.414550 -0.052721
C 0.427460 0.316790 0.405210 -0.050656
C 0.474890 0.312270 0.382200 0.275960
C 0.451670 0.310890 0.406410 0.010640
C 0.453040 0.304580 0.430680 -0.053568
C 0.648430 0.185940 0.208370 -0.049861
C 0.625010 0.159360 0.253050 0.282189
C 0.624940 0.182180 0.227950 0.011640
C 0.601430 0.201450 0.223900 -0.050704
C 0.705160 0.162970 0.267990 -0.052790
C 0.668310 0.144040 0.299610 0.273881
C 0.685300 0.158700 0.292400 0.010798
C 0.720830 0.176810 0.261520 -0.050686
C 0.732610 0.203100 0.271990 0.281248
C 0.717260 0.186750 0.279270 0.010842
C 0.681900 0.168510 0.310160 -0.055078
C 0.697570 0.182220 0.303740 -0.049921
C 0.620990 0.284250 0.322640 -0.052671
C 0.648410 0.275200 0.313630 -0.050358
C 0.536320 0.322240 0.241940 -0.050410
C 0.528300 0.341660 0.273040 0.278804
C 0.539870 0.339720 0.246720 0.010733
C 0.549380 0.318890 0.217500 -0.056533
C 0.668080 0.077960 0.332570 0.280078
C 0.566150 0.332990 0.197470 0.009890
C 0.555920 0.354380 0.226380 -0.053367
C 0.568810 0.351110 0.202130 -0.045907
O 0.502140 0.425590 0.461030 0.274721
O 0.525250 0.333270 0.368830 0.281521
O 0.484770 0.408010 0.443520 0.274918
O 0.496730 0.306370 0.383700 0.276705
O 0.471760 0.360820 0.319690 0.278074
O 0.646810 0.143410 0.256260 0.289240
O 0.646700 0.092850 0.280980 0.288226
O 0.672770 0.133960 0.283900 0.284189
O 0.650000 0.142050 0.321490 0.270462
O 0.749400 0.207970 0.249270 0.288879
O 0.727710 0.212180 0.288670 0.286630
O 0.565560 0.303790 0.339260 0.277457
O 0.702490 0.258010 0.293460 0.284803
O 0.511110 0.331120 0.290160 0.278109
O 0.536570 0.277460 0.353320 0.281518
O 0.672270 0.084100 0.308550 0.285414
O 0.599430 0.157370 0.339070 0.283649
H 0.539020 0.407290 0.476220 0.130562
H 0.515320 0.340370 0.409170 0.129519
H 0.500730 0.366490 0.435290 0.129318
H 0.425540 0.321740 0.386950 0.132248
H 0.471310 0.299990 0.432360 0.126189
H 0.666980 0.171760 0.210610 0.130271
H 0.582900 0.199500 0.238420 0.129944
H 0.708490 0.155790 0.253740 0.127750
H 0.735570 0.179980 0.242410 0.128172
H 0.666980 0.165670 0.329170 0.128947
H 0.693940 0.189610 0.317970 0.129262
H 0.610900 0.272420 0.341070 0.129816
H 0.658350 0.256650 0.325490 0.130333
H 0.524080 0.310590 0.257300 0.122767
H 0.546900 0.304830 0.214520 0.121991
H 0.558950 0.368140 0.229280 0.134131
H 0.581310 0.362600 0.187110 0.137129
Cr 0.944230 0.283840 0.114230 -2.344473
Cr 0.803480 0.359630 0.306560 -2.294553
C 0.569440 0.460920 0.422400 -0.052212
C 0.726960 0.399550 0.361020 -0.051813
C 0.705390 0.414550 0.376030 -0.052721
C 0.850540 0.405210 0.316790 -0.050705
C 0.830630 0.382200 0.312270 0.276117
C 0.831040 0.406410 0.310890 0.010652
C 0.811700 0.430680 0.304580 -0.053596
C 0.957260 0.208370 0.185940 -0.049820
C 0.962580 0.253050 0.159360 0.282204
C 0.964940 0.227950 0.182180 0.011637
C 0.973220 0.223900 0.201450 -0.050726
C 0.863890 0.267990 0.162970 -0.052789
C 0.888040 0.299610 0.144040 0.273793
C 0.863600 0.292400 0.158700 0.010801
C 0.840850 0.261520 0.176810 -0.050660
C 0.792300 0.271990 0.203100 0.281195
C 0.816720 0.279270 0.186750 0.010836
C 0.839430 0.310160 0.168510 -0.055071
C 0.816470 0.303740 0.182220 -0.049923
C 0.772120 0.322640 0.284250 -0.052729
C 0.762760 0.313630 0.275200 -0.050328
C 0.899500 0.241940 0.322240 -0.050577
C 0.857000 0.273040 0.341660 0.278916
C 0.873690 0.246720 0.339720 0.010752
C 0.914230 0.217500 0.318890 -0.056395
C 0.921380 0.332570 0.077960 0.280003
C 0.903390 0.197470 0.332990 0.009867
C 0.863310 0.226380 0.354380 -0.053488
C 0.877940 0.202130 0.351110 -0.045860
O 0.611240 0.461030 0.425590 0.274773
O 0.772650 0.368830 0.333270 0.281284
O 0.663700 0.443520 0.408010 0.274958
O 0.813200 0.383700 0.306370 0.276693
O 0.847730 0.319690 0.360820 0.278085
O 0.953520 0.256260 0.143410 0.289178
O 0.979460 0.280980 0.092850 0.288359
O 0.909370 0.283900 0.133960 0.284124
O 0.886470 0.321490 0.142050 0.270629
O 0.793360 0.249270 0.207970 0.288867
O 0.771430 0.288670 0.212180 0.286847
O 0.791400 0.339260 0.303790 0.277382
O 0.746040 0.293460 0.258010 0.284794
O 0.867620 0.290160 0.331120 0.278190
O 0.832640 0.353320 0.277460 0.281567
O 0.935080 0.308550 0.084100 0.285371
O 0.904140 0.339070 0.157370 0.283538
H 0.577470 0.476220 0.407290 0.130554
H 0.735150 0.409170 0.340370 0.129493
H 0.697490 0.435290 0.366490 0.129317
H 0.865770 0.386950 0.321740 0.132231
H 0.796340 0.432360 0.299990 0.126167
H 0.950640 0.210610 0.171760 0.130240
H 0.979180 0.238420 0.199500 0.129928
H 0.881990 0.253740 0.155790 0.127756
H 0.842030 0.242410 0.179980 0.128178
H 0.838190 0.329170 0.165670 0.128943
H 0.798490 0.317970 0.189610 0.129245
H 0.775610 0.341070 0.272420 0.129788
H 0.759510 0.325490 0.256650 0.130325
H 0.908020 0.257300 0.310590 0.122764
H 0.933760 0.214520 0.304830 0.121961
H 0.843630 0.229280 0.368140 0.134123
H 0.868980 0.187110 0.362600 0.137133
Cr 0.114230 0.657700 0.944230 -2.344605
Cr 0.306560 0.530340 0.803480 -2.294690
C 0.422400 0.547230 0.569440 -0.052250
C 0.361020 0.512470 0.726960 -0.051921
C 0.376030 0.504030 0.705390 -0.052624
C 0.316790 0.427460 0.850540 -0.050607
C 0.312270 0.474890 0.830630 0.275908
C 0.310890 0.451670 0.831040 0.010616
C 0.304580 0.453040 0.811700 -0.053594
C 0.185940 0.648430 0.957260 -0.049878
C 0.159360 0.625010 0.962580 0.282228
C 0.182180 0.624940 0.964940 0.011653
C 0.201450 0.601430 0.973220 -0.050717
C 0.162970 0.705160 0.863890 -0.052626
C 0.144040 0.668310 0.888040 0.273816
C 0.158700 0.685300 0.863600 0.010775
C 0.176810 0.720830 0.840850 -0.050889
C 0.203100 0.732610 0.792300 0.281248
C 0.186750 0.717260 0.816720 0.010879
C 0.168510 0.681900 0.839430 -0.055072
C 0.182220 0.697570 0.816470 -0.050011
C 0.284250 0.620990 0.772120 -0.052708
C 0.275200 0.648410 0.762760 -0.050341
C 0.322240 0.536320 0.899500 -0.050452
C 0.341660 0.528300 0.857000 0.278890
C 0.339720 0.539870 0.873690 0.010734
C 0.318890 0.549380 0.914230 -0.056449
C 0.077960 0.668080 0.921380 0.280065
C 0.332990 0.566150 0.903390 0.009876
C 0.354380 0.555920 0.863310 -0.053407
C 0.351110 0.568810 0.877940 -0.045908
O 0.425590 0.502140 0.611240 0.274760
O 0.333270 0.525250 0.772650 0.281249
O 0.408010 0.484770 0.663700 0.274994
O 0.306370 0.496730 0.813200 0.276563
O 0.360820 0.471760 0.847730 0.278186
O 0.143410 0.646810 0.953520 0.289211
O 0.092850 0.646700 0.979460 0.288364
O 0.133960 0.672770 0.909370 0.284156
O 0.142050 0.650000 0.886470 0.270489
O 0.207970 0.749400 0.793360 0.288871
O 0.212180 0.727710 0.771430 0.286738
O 0.303790 0.565560 0.791400 0.277310
O 0.258010 0.702490 0.746040 0.284751
O 0.331120 0.511110 0.867620 0.277845
O 0.277460 0.536570 0.832640 0.281715
O 0.084100 0.672270 0.935080 0.285437
O 0.157370 0.599430 0.904140 0.283696
H 0.407290 0.539020 0.577470 0.130574
H 0.340370 0.515320 0.735150 0.129514
H 0.366490 0.500730 0.697490 0.129308
H 0.321740 0.425540 0.865770 0.132243
H 0.299990 0.471310 0.796340 0.126154
H 0.171760 0.666980 0.950640 0.130267
H 0.199500 0.582900 0.979180 0.129948
H 0.155790 0.708490 0.881990 0.127739
H 0.179980 0.735570 0.842030 0.128228
H 0.165670 0.666980 0.838190 0.128969
H 0.189610 0.693940 0.798490 0.129261
H 0.272420 0.610900 0.775610 0.129802
H 0.256650 0.658350 0.759510 0.130323
H 0.310590 0.524080 0.908020 0.122771
H 0.304830 0.546900 0.933760 0.121985
H 0.368140 0.558950 0.843630 0.134139
H 0.362600 0.581310 0.868980 0.137098
Cr 0.283840 0.944230 0.657700 -2.344295
Cr 0.359630 0.803480 0.530340 -2.294894
C 0.460920 0.569440 0.547230 -0.052221
C 0.399550 0.726960 0.512470 -0.051740
C 0.414550 0.705390 0.504030 -0.052754
C 0.405210 0.850540 0.427460 -0.050662
C 0.382200 0.830630 0.474890 0.276002
C 0.406410 0.831040 0.451670 0.010644
C 0.430680 0.811700 0.453040 -0.053587
C 0.208370 0.957260 0.648430 -0.049846
C 0.253050 0.962580 0.625010 0.282121
C 0.227950 0.964940 0.624940 0.011645
C 0.223900 0.973220 0.601430 -0.050701
C 0.267990 0.863890 0.705160 -0.052716
C 0.299610 0.888040 0.668310 0.273724
C 0.292400 0.863600 0.685300 0.010793
C 0.261520 0.840850 0.720830 -0.050712
C 0.271990 0.792300 0.732610 0.281177
C 0.279270 0.816720 0.717260 0.010846
C 0.310160 0.839430 0.681900 -0.055097
C 0.303740 0.816470 0.697570 -0.049971
C 0.322640 0.772120 0.620990 -0.052675
C 0.313630 0.762760 0.648410 -0.050362
C 0.241940 0.899500 0.536320 -0.050628
C 0.273040 0.857000 0.528300 0.278946
C 0.246720 0.873690 0.539870 0.010764
C 0.217500 0.914230 0.549380 -0.056316
C 0.332570 0.921380 0.668080 0.280080
C 0.197470 0.903390 0.566150 0.009843
C 0.226380 0.863310 0.555920 -0.053496
C 0.202130 0.877940 0.568810 -0.045829
O 0.461030 0.611240 0.502140 0.274706
O 0.368830 0.772650 0.525250 0.281268
O 0.443520 0.663700 0.484770 0.274907
O 0.383700 0.813200 0.496730 0.276685
O 0.319690 0.847730 0.471760 0.278356
O 0.256260 0.953520 0.646810 0.289135
O 0.280980 0.979460 0.646700 0.288381
O 0.283900 0.909370 0.672770 0.284077
O 0.321490 0.886470 0.650000 0.270442
O 0.249270 0.793360 0.749400 0.288857
O 0.288670 0.771430 0.727710 0.286811
O 0.339260 0.791400 0.565560 0.277420
O 0.293460 0.746040 0.702490 0.284711
O 0.290160 0.867620 0.511110 0.278163
O 0.353320 0.832640 0.536570 0.281950
O 0.308550 0.935080 0.672270 0.285286
O 0.339070 0.904140 0.599430 0.283600
H 0.476220 0.577470 0.539020 0.130545
H 0.409170 0.735150 0.515320 0.129496
H 0.435290 0.697490 0.500730 0.129315
H 0.386950 0.865770 0.425540 0.132245
H 0.432360 0.796340 0.471310 0.126176
H 0.210610 0.950640 0.666980 0.130248
H 0.238420 0.979180 0.582900 0.129934
H 0.253740 0.881990 0.708490 0.127758
H 0.242410 0.842030 0.735570 0.128188
H 0.329170 0.838190 0.666980 0.128943
H 0.317970 0.798490 0.693940 0.129247
H 0.341070 0.775610 0.610900 0.129805
H 0.325490 0.759510 0.658350 0.130323
H 0.257300 0.908020 0.524080 0.122795
H 0.214520 0.933760 0.546900 0.121952
H 0.229280 0.843630 0.558950 0.134131
H 0.187110 0.868980 0.581310 0.137144
Cr 0.283840 0.657700 0.114230 -2.344751
Cr 0.359630 0.530340 0.306560 -2.295118
C 0.460920 0.547230 0.422400 -0.052237
C 0.399550 0.512470 0.361020 -0.051814
C 0.414550 0.504030 0.376030 -0.052721
C 0.405210 0.427460 0.316790 -0.050656
C 0.382200 0.474890 0.312270 0.275960
C 0.406410 0.451670 0.310890 0.010640
C 0.430680 0.453040 0.304580 -0.053568
C 0.208370 0.648430 0.185940 -0.049861
C 0.253050 0.625010 0.159360 0.282189
C 0.227950 0.624940 0.182180 0.011640
C 0.223900 0.601430 0.201450 -0.050704
C 0.267990 0.705160 0.162970 -0.052790
C 0.299610 0.668310 0.144040 0.273881
C 0.292400 0.685300 0.158700 0.010798
C 0.261520 0.720830 0.176810 -0.050686
C 0.271990 0.732610 0.203100 0.281248
C 0.279270 0.717260 0.186750 0.010842
C 0.310160 0.681900 0.168510 -0.055078
C 0.303740 0.697570 0.182220 -0.049921
C 0.322640 0.620990 0.284250 -0.052671
C 0.313630 0.648410 0.275200 -0.050358
C 0.241940 0.536320 0.322240 -0.050410
C 0.273040 0.528300 0.341660 0.278804
C 0.246720 0.539870 0.339720 0.010733
C 0.217500 0.549380 0.318890 -0.056533
C 0.332570 0.668080 0.077960 0.280078
C 0.197470 0.566150 0.332990 0.009890
C 0.226380 0.555920 0.354380 -0.053367
C 0.202130 0.568810 0.351110 -0.045907
O 0.461030 0.502140 0.425590 0.274721
O 0.368830 0.525250 0.333270 0.281521
O 0.443520 0.484770 0.408010 0.274918
O 0.383700 0.496730 0.306370 0.276705
O 0.319690 0.471760 0.360820 0.278074
O 0.256260 0.646810 0.143410 0.289240
O 0.280980 0.646700 0.092850 0.288226
O 0.283900 0.672770 0.133960 0.284189
O 0.321490 0.650000 0.142050 0.270462
O 0.249270 0.749400 0.207970 0.288879
O 0.288670 0.727710 0.212180 0.286630
O 0.339260 0.565560 0.303790 0.277457
O 0.293460 0.702490 0.258010 0.284803
O 0.290160 0.511110 0.331120 0.278109
O 0.353320 0.536570 0.277460 0.281518
O 0.308550 0.672270 0.084100 0.285414
O 0.339070 0.599430 0.157370 0.283649
H 0.476220 0.539020 0.407290 0.130562
H 0.409170 0.515320 0.340370 0.129519
H 0.435290 0.500730 0.366490 0.129318
H 0.386950 0.425540 0.321740 0.132248
H 0.432360 0.471310 0.299990 0.126189
H 0.210610 0.666980 0.171760 0.130271
H 0.238420 0.582900 0.199500 0.129944
H 0.253740 0.708490 0.155790 0.127750
H 0.242410 0.735570 0.179980 0.128172
H 0.329170 0.666980 0.165670 0.128947
H 0.317970 0.693940 0.189610 0.129262
H 0.341070 0.610900 0.272420 0.129816
H 0.325490 0.658350 0.256650 0.130333
H 0.257300 0.524080 0.310590 0.122767
H 0.214520 0.546900 0.304830 0.121991
H 0.229280 0.558950 0.368140 0.134131
H 0.187110 0.581310 0.362600 0.137129
Cr 0.114230 0.944230 0.283840 -2.344473
Cr 0.306560 0.803480 0.359630 -2.294553
C 0.422400 0.569440 0.460920 -0.052212
C 0.361020 0.726960 0.399550 -0.051813
C 0.376030 0.705390 0.414550 -0.052721
C 0.316790 0.850540 0.405210 -0.050705
C 0.312270 0.830630 0.382200 0.276117
C 0.310890 0.831040 0.406410 0.010652
C 0.304580 0.811700 0.430680 -0.053596
C 0.185940 0.957260 0.208370 -0.049820
C 0.159360 0.962580 0.253050 0.282204
C 0.182180 0.964940 0.227950 0.011637
C 0.201450 0.973220 0.223900 -0.050726
C 0.162970 0.863890 0.267990 -0.052789
C 0.144040 0.888040 0.299610 0.273793
C 0.158700 0.863600 0.292400 0.010801
C 0.176810 0.840850 0.261520 -0.050660
C 0.203100 0.792300 0.271990 0.281195
C 0.186750 0.816720 0.279270 0.010836
C 0.168510 0.839430 0.310160 -0.055071
C 0.182220 0.816470 0.303740 -0.049923
C 0.284250 0.772120 0.322640 -0.052729
C 0.275200 0.762760 0.313630 -0.050328
C 0.322240 0.899500 0.241940 -0.050577
C 0.341660 0.857000 0.273040 0.278916
C 0.339720 0.873690 0.246720 0.010752
C 0.318890 0.914230 0.217500 -0.056395
C 0.077960 0.921380 0.332570 0.280003
C 0.332990 0.903390 0.197470 0.009867
C 0.354380 0.863310 0.226380 -0.053488
C 0.351110 0.877940 0.202130 -0.045860
O 0.425590 0.611240 0.461030 0.274773
O 0.333270 0.772650 0.368830 0.281284
O 0.408010 0.663700 0.443520 0.274958
O 0.306370 0.813200 0.383700 0.276693
O 0.360820 0.847730 0.319690 0.278085
O 0.143410 0.953520 0.256260 0.289178
O 0.092850 0.979460 0.280980 0.288359
O 0.133960 0.909370 0.283900 0.284124
O 0.142050 0.886470 0.321490 0.270629
O 0.207970 0.793360 0.249270 0.288867
O 0.212180 0.771430 0.288670 0.286847
O 0.303790 0.791400 0.339260 0.277382
O 0.258010 0.746040 0.293460 0.284794
O 0.331120 0.867620 0.290160 0.278190
O 0.277460 0.832640 0.353320 0.281567
O 0.084100 0.935080 0.308550 0.285371
O 0.157370 0.904140 0.339070 0.283538
H 0.407290 0.577470 0.476220 0.130554
H 0.340370 0.735150 0.409170 0.129493
H 0.366490 0.697490 0.435290 0.129317
H 0.321740 0.865770 0.386950 0.132231
H 0.299990 0.796340 0.432360 0.126167
H 0.171760 0.950640 0.210610 0.130240
H 0.199500 0.979180 0.238420 0.129928
H 0.155790 0.881990 0.253740 0.127756
H 0.179980 0.842030 0.242410 0.128178
H 0.165670 0.838190 0.329170 0.128943
H 0.189610 0.798490 0.317970 0.129245
H 0.272420 0.775610 0.341070 0.129788
H 0.256650 0.759510 0.325490 0.130325
H 0.310590 0.908020 0.257300 0.122764
H 0.304830 0.933760 0.214520 0.121961
H 0.368140 0.843630 0.229280 0.134123
H 0.362600 0.868980 0.187110 0.137133
Cr 0.944230 0.114230 0.657700 -2.344605
Cr 0.803480 0.306560 0.530340 -2.294690
C 0.569440 0.422400 0.547230 -0.052250
C 0.726960 0.361020 0.512470 -0.051921
C 0.705390 0.376030 0.504030 -0.052624
C 0.850540 0.316790 0.427460 -0.050607
C 0.830630 0.312270 0.474890 0.275908
C 0.831040 0.310890 0.451670 0.010616
C 0.811700 0.304580 0.453040 -0.053594
C 0.957260 0.185940 0.648430 -0.049878
C 0.962580 0.159360 0.625010 0.282228
C 0.964940 0.182180 0.624940 0.011653
C 0.973220 0.201450 0.601430 -0.050717
C 0.863890 0.162970 0.705160 -0.052626
C 0.888040 0.144040 0.668310 0.273816
C 0.863600 0.158700 0.685300 0.010775
C 0.840850 0.176810 0.720830 -0.050889
C 0.792300 0.203100 0.732610 0.281248
C 0.816720 0.186750 0.717260 0.010879
C 0.839430 0.168510 0.681900 -0.055072
C 0.816470 0.182220 0.697570 -0.050011
C 0.772120 0.284250 0.620990 -0.052708
C 0.762760 0.275200 0.648410 -0.050341
C 0.899500 0.322240 0.536320 -0.050452
C 0.857000 0.341660 0.528300 0.278890
C 0.873690 0.339720 0.539870 0.010734
C 0.914230 0.318890 0.549380 -0.056449
C 0.921380 0.077960 0.668080 0.280065
C 0.903390 0.332990 0.566150 0.009876
C 0.863310 0.354380 0.555920 -0.053407
C 0.877940 0.351110 0.568810 -0.045908
O 0.611240 0.425590 0.502140 0.274760
O 0.772650 0.333270 0.525250 0.281249
O 0.663700 0.408010 0.484770 0.274994
O 0.813200 0.306370 0.496730 0.276563
O 0.847730 0.360820 0.471760 0.278186
O 0.953520 0.143410 0.646810 0.289211
O 0.979460 0.092850 0.646700 0.288364
O 0.909370 0.133960 0.672770 0.284156
O 0.886470 0.142050 0.650000 0.270489
O 0.793360 0.207970 0.749400 0.288871
O 0.771430 0.212180 0.727710 0.286738
O 0.791400 0.303790 0.565560 0.277310
O 0.746040 0.258010 0.702490 0.284751
O 0.867620 0.331120 0.511110 0.277845
O 0.832640 0.277460 0.536570 0.281715
O 0.935080 0.084100 0.672270 0.285437
O 0.904140 0.157370 0.599430 0.283696
H 0.577470 0.407290 0.539020 0.130574
H 0.735150 0.340370 0.515320 0.129514
H 0.697490 0.366490 0.500730 0.129308
H 0.865770 0.321740 0.425540 0.132243
H 0.796340 0.299990 0.471310 0.126154
H 0.950640 0.171760 0.666980 0.130267
H 0.979180 0.199500 0.582900 0.129948
H 0.881990 0.155790 0.708490 0.127739
H 0.842030 0.179980 0.735570 0.128228
H 0.838190 0.165670 0.666980 0.128969
H 0.798490 0.189610 0.693940 0.129261
H 0.775610 0.272420 0.610900 0.129802
H 0.759510 0.256650 0.658350 0.130323
H 0.908020 0.310590 0.524080 0.122771
H 0.933760 0.304830 0.546900 0.121985
H 0.843630 0.368140 0.558950 0.134139
H 0.868980 0.362600 0.581310 0.137098
Cr 0.657700 0.283840 0.944230 -2.344295
Cr 0.530340 0.359630 0.803480 -2.294894
C 0.547230 0.460920 0.569440 -0.052221
C 0.512470 0.399550 0.726960 -0.051740
C 0.504030 0.414550 0.705390 -0.052754
C 0.427460 0.405210 0.850540 -0.050662
C 0.474890 0.382200 0.830630 0.276002
C 0.451670 0.406410 0.831040 0.010644
C 0.453040 0.430680 0.811700 -0.053587
C 0.648430 0.208370 0.957260 -0.049846
C 0.625010 0.253050 0.962580 0.282121
C 0.624940 0.227950 0.964940 0.011645
C 0.601430 0.223900 0.973220 -0.050701
C 0.705160 0.267990 0.863890 -0.052716
C 0.668310 0.299610 0.888040 0.273724
C 0.685300 0.292400 0.863600 0.010793
C 0.720830 0.261520 0.840850 -0.050712
C 0.732610 0.271990 0.792300 0.281177
C 0.717260 0.279270 0.816720 0.010846
C 0.681900 0.310160 0.839430 -0.055097
C 0.697570 0.303740 0.816470 -0.049971
C 0.620990 0.322640 0.772120 -0.052675
C 0.648410 0.313630 0.762760 -0.050362
C 0.536320 0.241940 0.899500 -0.050628
C 0.528300 0.273040 0.857000 0.278946
C 0.539870 0.246720 0.873690 0.010764
C 0.549380 0.217500 0.914230 -0.056316
C 0.668080 0.332570 0.921380 0.280080
C 0.566150 0.197470 0.903390 0.009843
C 0.555920 0.226380 0.863310 -0.053496
C 0.568810 0.202130 0.877940 -0.045829
O 0.502140 0.461030 0.611240 0.274706
O 0.525250 0.368830 0.772650 0.281268
O 0.484770 0.443520 0.663700 0.274907
O 0.496730 0.383700 0.813200 0.276685
O 0.471760 0.319690 0.847730 0.278356
O 0.646810 0.256260 0.953520 0.289135
O 0.646700 0.280980 0.979460 0.288381
O 0.672770 0.283900 0.909370 0.284077
O 0.650000 0.321490 0.886470 0.270442
O 0.749400 0.249270 0.793360 0.288857
O 0.727710 0.288670 0.771430 0.286811
O 0.565560 0.339260 0.791400 0.277420
O 0.702490 0.293460 0.746040 0.284711
O 0.511110 0.290160 0.867620 0.278163
O 0.536570 0.353320 0.832640 0.281950
O 0.672270 0.308550 0.935080 0.285286
O 0.599430 0.339070 0.904140 0.283600
H 0.539020 0.476220 0.577470 0.130545
H 0.515320 0.409170 0.735150 0.129496
H 0.500730 0.435290 0.697490 0.129315
H 0.425540 0.386950 0.865770 0.132245
H 0.471310 0.432360 0.796340 0.126176
H 0.666980 0.210610 0.950640 0.130248
H 0.582900 0.238420 0.979180 0.129934
H 0.708490 0.253740 0.881990 0.127758
H 0.735570 0.242410 0.842030 0.128188
H 0.666980 0.329170 0.838190 0.128943
H 0.693940 0.317970 0.798490 0.129247
H 0.610900 0.341070 0.775610 0.129805
H 0.658350 0.325490 0.759510 0.130323
H 0.524080 0.257300 0.908020 0.122795
H 0.546900 0.214520 0.933760 0.121952
H 0.558950 0.229280 0.843630 0.134131
H 0.581310 0.187110 0.868980 0.137144
Cr 0.135770 0.966160 0.305770 -2.344473
Cr 0.943440 0.890370 0.446520 -2.294553
C 0.827600 0.789080 0.680560 -0.052212
C 0.888980 0.850450 0.523040 -0.051813
C 0.873970 0.835450 0.544610 -0.052721
C 0.933210 0.844790 0.399460 -0.050705
C 0.937730 0.867800 0.419370 0.276117
C 0.939110 0.843590 0.418960 0.010652
C 0.945420 0.819320 0.438300 -0.053596
C 0.064060 0.041630 0.292740 -0.049820
C 0.090640 0.996950 0.287420 0.282204
C 0.067820 0.022050 0.285060 0.011637
C 0.048550 0.026100 0.276780 -0.050726
C 0.087030 0.982010 0.386110 -0.052789
C 0.105960 0.950390 0.361960 0.273793
C 0.091300 0.957600 0.386400 0.010801
C 0.073190 0.988480 0.409150 -0.050660
C 0.046900 0.978010 0.457700 0.281195
C 0.063250 0.970730 0.433280 0.010836
C 0.081490 0.939840 0.410570 -0.055071
C 0.067780 0.946260 0.433530 -0.049923
C 0.965750 0.927360 0.477880 -0.052729
C 0.974800 0.936370 0.487240 -0.050328
C 0.927760 0.008060 0.350500 -0.050577
C 0.908340 0.976960 0.393000 0.278916
C 0.910280 0.003280 0.376310 0.010752
C 0.931110 0.032500 0.335770 -0.056395
C 0.172040 0.917430 0.328620 0.280003
C 0.917010 0.052530 0.346610 0.009867
C 0.895620 0.023620 0.386690 -0.053488
C 0.898890 0.047870 0.372060 -0.045860
O 0.824410 0.788970 0.638760 0.274773
O 0.916730 0.881170 0.477350 0.281284
O 0.841990 0.806480 0.586300 0.274958
O 0.943630 0.866300 0.436800 0.276693
O 0.889180 0.930310 0.402270 0.278085
O 0.106590 0.993740 0.296480 0.289178
O 0.157150 0.969020 0.270540 0.288359
O 0.116040 0.966100 0.340630 0.284124
O 0.107950 0.928510 0.363530 0.270629
O 0.042030 0.000730 0.456640 0.288867
O 0.037820 0.961330 0.478570 0.286847
O 0.946210 0.910740 0.458600 0.277382
O 0.991990 0.956540 0.503960 0.284794
O 0.918880 0.959840 0.382380 0.278190
O 0.972540 0.896680 0.417360 0.281567
O 0.165900 0.941450 0.314920 0.285371
O 0.092630 0.910930 0.345860 0.283538
H 0.842710 0.773780 0.672530 0.130554
H 0.909630 0.840830 0.514850 0.129493
H 0.883510 0.814710 0.552510 0.129317
H 0.928260 0.863050 0.384230 0.132231
H 0.950010 0.817640 0.453660 0.126167
H 0.078240 0.039390 0.299360 0.130240
H 0.050500 0.011580 0.270820 0.129928
H 0.094210 0.996260 0.368010 0.127756
H 0.070020 0.007590 0.407970 0.128178
H 0.084330 0.920830 0.411810 0.128943
H 0.060390 0.932030 0.451510 0.129245
H 0.977580 0.908930 0.474390 0.129788
H 0.993350 0.924510 0.490490 0.130325
H 0.939410 0.992700 0.341980 0.122764
H 0.945170 0.035480 0.316240 0.121961
H 0.881860 0.020720 0.406370 0.134123
H 0.887400 0.062890 0.381020 0.137133
Cr 0.966160 0.135770 0.592300 -2.344751
Cr 0.890370 0.943440 0.719660 -2.295118
C 0.789080 0.827600 0.702770 -0.052237
C 0.850450 0.888980 0.737530 -0.051814
C 0.835450 0.873970 0.745970 -0.052721
C 0.844790 0.933210 0.822540 -0.050656
C 0.867800 0.937730 0.775110 0.275960
C 0.843590 0.939110 0.798330 0.010640
C 0.819320 0.945420 0.796960 -0.053568
C 0.041630 0.064060 0.601570 -0.049861
C 0.996950 0.090640 0.624990 0.282189
C 0.022050 0.067820 0.625060 0.011640
C 0.026100 0.048550 0.648570 -0.050704
C 0.982010 0.087030 0.544840 -0.052790
C 0.950390 0.105960 0.581690 0.273881
C 0.957600 0.091300 0.564700 0.010798
C 0.988480 0.073190 0.529170 -0.050686
C 0.978010 0.046900 0.517390 0.281248
C 0.970730 0.063250 0.532740 0.010842
C 0.939840 0.081490 0.568100 -0.055078
C 0.946260 0.067780 0.552430 -0.049921
C 0.927360 0.965750 0.629010 -0.052671
C 0.936370 0.974800 0.601590 -0.050358
C 0.008060 0.927760 0.713680 -0.050410
C 0.976960 0.908340 0.721700 0.278804
C 0.003280 0.910280 0.710130 0.010733
C 0.032500 0.931110 0.700620 -0.056533
C 0.917430 0.172040 0.581920 0.280078
C 0.052530 0.917010 0.683850 0.009890
C 0.023620 0.895620 0.694080 -0.053367
C 0.047870 0.898890 0.681190 -0.045907
O 0.788970 0.824410 0.747860 0.274721
O 0.881170 0.916730 0.724750 0.281521
O 0.806480 0.841990 0.765230 0.274918
O 0.866300 0.943630 0.753270 0.276705
O 0.930310 0.889180 0.778240 0.278074
O 0.993740 0.106590 0.603190 0.289240
O 0.969020 0.157150 0.603300 0.288226
O 0.966100 0.116040 0.577230 0.284189
O 0.928510 0.107950 0.600000 0.270462
O 0.000730 0.042030 0.500600 0.288879
O 0.961330 0.037820 0.522290 0.286630
O 0.910740 0.946210 0.684440 0.277457
O 0.956540 0.991990 0.547510 0.284803
O 0.959840 0.918880 0.738890 0.278109
O 0.896680 0.972540 0.713430 0.281518
O 0.941450 0.165900 0.577730 0.285414
O 0.910930 0.092630 0.650570 0.283649
H 0.773780 0.842710 0.710980 0.130562
H 0.840830 0.909630 0.734680 0.129519
H 0.814710 0.883510 0.749270 0.129318
H 0.863050 0.928260 0.824460 0.132248
H 0.817640 0.950010 0.778690 0.126189
H 0.039390 0.078240 0.583020 0.130271
H 0.011580 0.050500 0.667100 0.129944
H 0.996260 0.094210 0.541510 0.127750
H 0.007590 0.070020 0.514430 0.128172
H 0.920830 0.084330 0.583020 0.128947
H 0.932030 0.060390 0.556060 0.129262
H 0.908930 0.977580 0.639100 0.129816
H 0.924510 0.993350 0.591650 0.130333
H 0.992700 0.939410 0.725920 0.122767
H 0.035480 0.945170 0.703100 0.121991
H 0.020720 0.881860 0.691050 0.134131
H 0.062890 0.887400 0.668690 0.137129
Cr 0.592300 0.305770 0.966160 -2.344295
Cr 0.719660 0.446520 0.890370 -2.294894
C 0.702770 0.680560 0.789080 -0.052221
C 0.737530 0.523040 0.850450 -0.051740
C 0.745970 0.544610 0.835450 -0.052754
C 0.822540 0.399460 0.844790 -0.050662
C 0.775110 0.419370 0.867800 0.276002
C 0.798330 0.418960 0.843590 0.010644
C 0.796960 0.438300 0.819320 -0.053587
C 0.601570 0.292740 0.041630 -0.049846
C 0.624990 0.287420 0.996950 0.282121
C 0.625060 0.285060 0.022050 0.011645
C 0.648570 0.276780 0.026100 -0.050701
C 0.544840 0.386110 0.982010 -0.052716
C 0.581690 0.361960 0.950390 0.273724
C 0.564700 0.386400 0.957600 0.010793
C 0.529170 0.409150 0.988480 -0.050712
C 0.517390 0.457700 0.978010 0.281177
C 0.532740 0.433280 0.970730 0.010846
C 0.568100 0.410570 0.939840 -0.055097
C 0.552430 0.433530 0.946260 -0.049971
C 0.629010 0.477880 0.927360 -0.052675
C 0.601590 0.487240 0.936370 -0.050362
C 0.713680 0.350500 0.008060 -0.050628
C 0.721700 0.393000 0.976960 0.278946
C 0.710130 0.376310 0.003280 0.010764
C 0.700620 0.335770 0.032500 -0.056316
C 0.581920 0.328620 0.917430 0.280080
C 0.683850 0.346610 0.052530 0.009843
C 0.694080 0.386690 0.023620 -0.053496
C 0.681190 0.372060 0.047870 -0.045829
O 0.747860 0.638760 0.788970 0.274706
O 0.724750 0.477350 0.881170 0.281268
O 0.765230 0.586300 0.806480 0.274907
O 0.753270 0.436800 0.866300 0.276685
O 0.778240 0.402270 0.930310 0.278356
O 0.603190 0.296480 0.993740 0.289135
O 0.603300 0.270540 0.969020 0.288381
O 0.577230 0.340630 0.966100 0.284077
O 0.600000 0.363530 0.928510 0.270442
O 0.500600 0.456640 0.000730 0.288857
O 0.522290 0.478570 0.961330 0.286811
O 0.684440 0.458600 0.910740 0.277420
O 0.547510 0.503960 0.956540 0.284711
O 0.738890 0.382380 0.959840 0.278163
O 0.713430 0.417360 0.896680 0.281950
O 0.577730 0.314920 0.941450 0.285286
O 0.650570 0.345860 0.910930 0.283600
H 0.710980 0.672530 0.773780 0.130545
H 0.734680 0.514850 0.840830 0.129496
H 0.749270 0.552510 0.814710 0.129315
H 0.824460 0.384230 0.863050 0.132245
H 0.778690 0.453660 0.817640 0.126176
H 0.583020 0.299360 0.039390 0.130248
H 0.667100 0.270820 0.011580 0.129934
H 0.541510 0.368010 0.996260 0.127758
H 0.514430 0.407970 0.007590 0.128188
H 0.583020 0.411810 0.920830 0.128943
H 0.556060 0.451510 0.932030 0.129247
H 0.639100 0.474390 0.908930 0.129805
H 0.591650 0.490490 0.924510 0.130323
H 0.725920 0.341980 0.992700 0.122795
H 0.703100 0.316240 0.035480 0.121952
H 0.691050 0.406370 0.020720 0.134131
H 0.668690 0.381020 0.062890 0.137144
Cr 0.305770 0.592300 0.135770 -2.344605
Cr 0.446520 0.719660 0.943440 -2.294690
C 0.680560 0.702770 0.827600 -0.052250
C 0.523040 0.737530 0.888980 -0.051921
C 0.544610 0.745970 0.873970 -0.052624
C 0.399460 0.822540 0.933210 -0.050607
C 0.419370 0.775110 0.937730 0.275908
C 0.418960 0.798330 0.939110 0.010616
C 0.438300 0.796960 0.945420 -0.053594
C 0.292740 0.601570 0.064060 -0.049878
C 0.287420 0.624990 0.090640 0.282228
C 0.285060 0.625060 0.067820 0.011653
C 0.276780 0.648570 0.048550 -0.050717
C 0.386110 0.544840 0.087030 -0.052626
C 0.361960 0.581690 0.105960 0.273816
C 0.386400 0.564700 0.091300 0.010775
C 0.409150 0.529170 0.073190 -0.050889
C 0.457700 0.517390 0.046900 0.281248
C 0.433280 0.532740 0.063250 0.010879
C 0.410570 0.568100 0.081490 -0.055072
C 0.433530 0.552430 0.067780 -0.050011
C 0.477880 0.629010 0.965750 -0.052708
C 0.487240 0.601590 0.974800 -0.050341
C 0.350500 0.713680 0.927760 -0.050452
C 0.393000 0.721700 0.908340 0.278890
C 0.376310 0.710130 0.910280 0.010734
C 0.335770 0.700620 0.931110 -0.056449
C 0.328620 0.581920 0.172040 0.280065
C 0.346610 0.683850 0.917010 0.009876
C 0.386690 0.694080 0.895620 -0.053407
C 0.372060 0.681190 0.898890 -0.045908
O 0.638760 0.747860 0.824410 0.274760
O 0.477350 0.724750 0.916730 0.281249
O 0.586300 0.765230 0.841990 0.274994
O 0.436800 0.753270 0.943630 0.276563
O 0.402270 0.778240 0.889180 0.278186
O 0.296480 0.603190 0.106590 0.289211
O 0.270540 0.603300 0.157150 0.288364
O 0.340630 0.577230 0.116040 0.284156
O 0.363530 0.600000 0.107950 0.270489
O 0.456640 0.500600 0.042030 0.288871
O 0.478570 0.522290 0.037820 0.286738
O 0.458600 0.684440 0.946210 0.277310
O 0.503960 0.547510 0.991990 0.284751
O 0.382380 0.738890 0.918880 0.277845
O 0.417360 0.713430 0.972540 0.281715
O 0.314920 0.577730 0.165900 0.285437
O 0.345860 0.650570 0.092630 0.283696
H 0.672530 0.710980 0.842710 0.130574
H 0.514850 0.734680 0.909630 0.129514
H 0.552510 0.749270 0.883510 0.129308
H 0.384230 0.824460 0.928260 0.132243
H 0.453660 0.778690 0.950010 0.126154
H 0.299360 0.583020 0.078240 0.130267
H 0.270820 0.667100 0.050500 0.129948
H 0.368010 0.541510 0.094210 0.127739
H 0.407970 0.514430 0.070020 0.128228
H 0.411810 0.583020 0.084330 0.128969
H 0.451510 0.556060 0.060390 0.129261
H 0.474390 0.639100 0.977580 0.129802
H 0.490490 0.591650 0.993350 0.130323
H 0.341980 0.725920 0.939410 0.122771
H 0.316240 0.703100 0.945170 0.121985
H 0.406370 0.691050 0.881860 0.134139
H 0.381020 0.668690 0.887400 0.137098
Cr 0.592300 0.135770 0.305770 -2.344605
Cr 0.719660 0.943440 0.446520 -2.294690
C 0.702770 0.827600 0.680560 -0.052250
C 0.737530 0.888980 0.523040 -0.051921
C 0.745970 0.873970 0.544610 -0.052624
C 0.822540 0.933210 0.399460 -0.050607
C 0.775110 0.937730 0.419370 0.275908
C 0.798330 0.939110 0.418960 0.010616
C 0.796960 0.945420 0.438300 -0.053594
C 0.601570 0.064060 0.292740 -0.049878
C 0.624990 0.090640 0.287420 0.282228
C 0.625060 0.067820 0.285060 0.011653
C 0.648570 0.048550 0.276780 -0.050717
C 0.544840 0.087030 0.386110 -0.052626
C 0.581690 0.105960 0.361960 0.273816
C 0.564700 0.091300 0.386400 0.010775
C 0.529170 0.073190 0.409150 -0.050889
C 0.517390 0.046900 0.457700 0.281248
C 0.532740 0.063250 0.433280 0.010879
C 0.568100 0.081490 0.410570 -0.055072
C 0.552430 0.067780 0.433530 -0.050011
C 0.629010 0.965750 0.477880 -0.052708
C 0.601590 0.974800 0.487240 -0.050341
C 0.713680 0.927760 0.350500 -0.050452
C 0.721700 0.908340 0.393000 0.278890
C 0.710130 0.910280 0.376310 0.010734
C 0.700620 0.931110 0.335770 -0.056449
C 0.581920 0.172040 0.328620 0.280065
C 0.683850 0.917010 0.346610 0.009876
C 0.694080 0.895620 0.386690 -0.053407
C 0.681190 0.898890 0.372060 -0.045908
O 0.747860 0.824410 0.638760 0.274760
O 0.724750 0.916730 0.477350 0.281249
O 0.765230 0.841990 0.586300 0.274994
O 0.753270 0.943630 0.436800 0.276563
O 0.778240 0.889180 0.402270 0.278186
O 0.603190 0.106590 0.296480 0.289211
O 0.603300 0.157150 0.270540 0.288364
O 0.577230 0.116040 0.340630 0.284156
O 0.600000 0.107950 0.363530 0.270489
O 0.500600 0.042030 0.456640 0.288871
O 0.522290 0.037820 0.478570 0.286738
O 0.684440 0.946210 0.458600 0.277310
O 0.547510 0.991990 0.503960 0.284751
O 0.738890 0.918880 0.382380 0.277845
O 0.713430 0.972540 0.417360 0.281715
O 0.577730 0.165900 0.314920 0.285437
O 0.650570 0.092630 0.345860 0.283696
H 0.710980 0.842710 0.672530 0.130574
H 0.734680 0.909630 0.514850 0.129514
H 0.749270 0.883510 0.552510 0.129308
H 0.824460 0.928260 0.384230 0.132243
H 0.778690 0.950010 0.453660 0.126154
H 0.583020 0.078240 0.299360 0.130267
H 0.667100 0.050500 0.270820 0.129948
H 0.541510 0.094210 0.368010 0.127739
H 0.514430 0.070020 0.407970 0.128228
H 0.583020 0.084330 0.411810 0.128969
H 0.556060 0.060390 0.451510 0.129261
H 0.639100 0.977580 0.474390 0.129802
H 0.591650 0.993350 0.490490 0.130323
H 0.725920 0.939410 0.341980 0.122771
H 0.703100 0.945170 0.316240 0.121985
H 0.691050 0.881860 0.406370 0.134139
H 0.668690 0.887400 0.381020 0.137098
Cr 0.305770 0.966160 0.592300 -2.344295
Cr 0.446520 0.890370 0.719660 -2.294894
C 0.680560 0.789080 0.702770 -0.052221
C 0.523040 0.850450 0.737530 -0.051740
C 0.544610 0.835450 0.745970 -0.052754
C 0.399460 0.844790 0.822540 -0.050662
C 0.419370 0.867800 0.775110 0.276002
C 0.418960 0.843590 0.798330 0.010644
C 0.438300 0.819320 0.796960 -0.053587
C 0.292740 0.041630 0.601570 -0.049846
C 0.287420 0.996950 0.624990 0.282121
C 0.285060 0.022050 0.625060 0.011645
C 0.276780 0.026100 0.648570 -0.050701
C 0.386110 0.982010 0.544840 -0.052716
C 0.361960 0.950390 0.581690 0.273724
C 0.386400 0.957600 0.564700 0.010793
C 0.409150 0.988480 0.529170 -0.050712
C 0.457700 0.978010 0.517390 0.281177
C 0.433280 0.970730 0.532740 0.010846
C 0.410570 0.939840 0.568100 -0.055097
C 0.433530 0.946260 0.552430 -0.049971
C 0.477880 0.927360 0.629010 -0.052675
C 0.487240 0.936370 0.601590 -0.050362
C 0.350500 0.008060 0.713680 -0.050628
C 0.393000 0.976960 0.721700 0.278946
C 0.376310 0.003280 0.710130 0.010764
C 0.335770 0.032500 0.700620 -0.056316
C 0.328620 0.917430 0.581920 0.280080
C 0.346610 0.052530 0.683850 0.009843
C 0.386690 0.023620 0.694080 -0.053496
C 0.372060 0.047870 0.681190 -0.045829
O 0.638760 0.788970 0.747860 0.274706
O 0.477350 0.881170 0.724750 0.281268
O 0.586300 0.806480 0.765230 0.274907
O 0.436800 0.866300 0.753270 0.276685
O 0.402270 0.930310 0.778240 0.278356
O 0.296480 0.993740 0.603190 0.289135
O 0.270540 0.969020 0.603300 0.288381
O 0.340630 0.966100 0.577230 0.284077
O 0.363530 0.928510 0.600000 0.270442
O 0.456640 0.000730 0.500600 0.288857
O 0.478570 0.961330 0.522290 0.286811
O 0.458600 0.910740 0.684440 0.277420
O 0.503960 0.956540 0.547510 0.284711
O 0.382380 0.959840 0.738890 0.278163
O 0.417360 0.896680 0.713430 0.281950
O 0.314920 0.941450 0.577730 0.285286
O 0.345860 0.910930 0.650570 0.283600
H 0.672530 0.773780 0.710980 0.130545
H 0.514850 0.840830 0.734680 0.129496
H 0.552510 0.814710 0.749270 0.129315
H 0.384230 0.863050 0.824460 0.132245
H 0.453660 0.817640 0.778690 0.126176
H 0.299360 0.039390 0.583020 0.130248
H 0.270820 0.011580 0.667100 0.129934
H 0.368010 0.996260 0.541510 0.127758
H 0.407970 0.007590 0.514430 0.128188
H 0.411810 0.920830 0.583020 0.128943
H 0.451510 0.932030 0.556060 0.129247
H 0.474390 0.908930 0.639100 0.129805
H 0.490490 0.924510 0.591650 0.130323
H 0.341980 0.992700 0.725920 0.122795
H 0.316240 0.035480 0.703100 0.121952
H 0.406370 0.020720 0.691050 0.134131
H 0.381020 0.062890 0.668690 0.137144
Cr 0.135770 0.592300 0.966160 -2.344751
Cr 0.943440 0.719660 0.890370 -2.295118
C 0.827600 0.702770 0.789080 -0.052237
C 0.888980 0.737530 0.850450 -0.051814
C 0.873970 0.745970 0.835450 -0.052721
C 0.933210 0.822540 0.844790 -0.050656
C 0.937730 0.775110 0.867800 0.275960
C 0.939110 0.798330 0.843590 0.010640
C 0.945420 0.796960 0.819320 -0.053568
C 0.064060 0.601570 0.041630 -0.049861
C 0.090640 0.624990 0.996950 0.282189
C 0.067820 0.625060 0.022050 0.011640
C 0.048550 0.648570 0.026100 -0.050704
C 0.087030 0.544840 0.982010 -0.052790
C 0.105960 0.581690 0.950390 0.273881
C 0.091300 0.564700 0.957600 0.010798
C 0.073190 0.529170 0.988480 -0.050686
C 0.046900 0.517390 0.978010 0.281248
C 0.063250 0.532740 0.970730 0.010842
C 0.081490 0.568100 0.939840 -0.055078
C 0.067780 0.552430 0.946260 -0.049921
C 0.965750 0.629010 0.927360 -0.052671
C 0.974800 0.601590 0.936370 -0.050358
C 0.927760 0.713680 0.008060 -0.050410
C 0.908340 0.721700 0.976960 0.278804
C 0.910280 0.710130 0.003280 0.010733
C 0.931110 0.700620 0.032500 -0.056533
C 0.172040 0.581920 0.917430 0.280078
C 0.917010 0.683850 0.052530 0.009890
C 0.895620 0.694080 0.023620 -0.053367
C 0.898890 0.681190 0.047870 -0.045907
O 0.824410 0.747860 0.788970 0.274721
O 0.916730 0.724750 0.881170 0.281521
O 0.841990 0.765230 0.806480 0.274918
O 0.943630 0.753270 0.866300 0.276705
O 0.889180 0.778240 0.930310 0.278074
O 0.106590 0.603190 0.993740 0.289240
O 0.157150 0.603300 0.969020 0.288226
O 0.116040 0.577230 0.966100 0.284189
O 0.107950 0.600000 0.928510 0.270462
O 0.042030 0.500600 0.000730 0.288879
O 0.037820 0.522290 0.961330 0.286630
O 0.946210 0.684440 0.910740 0.277457
O 0.991990 0.547510 0.956540 0.284803
O 0.918880 0.738890 0.959840 0.278109
O 0.972540 0.713430 0.896680 0.281518
O 0.165900 0.577730 0.941450 0.285414
O 0.092630 0.650570 0.910930 0.283649
H 0.842710 0.710980 0.773780 0.130562
H 0.909630 0.734680 0.840830 0.129519
H 0.883510 0.749270 0.814710 0.129318
H 0.928260 0.824460 0.863050 0.132248
H 0.950010 0.778690 0.817640 0.126189
H 0.078240 0.583020 0.039390 0.130271
H 0.050500 0.667100 0.011580 0.129944
H 0.094210 0.541510 0.996260 0.127750
H 0.070020 0.514430 0.007590 0.128172
H 0.084330 0.583020 0.920830 0.128947
H 0.060390 0.556060 0.932030 0.129262
H 0.977580 0.639100 0.908930 0.129816
H 0.993350 0.591650 0.924510 0.130333
H 0.939410 0.725920 0.992700 0.122767
H 0.945170 0.703100 0.035480 0.121991
H 0.881860 0.691050 0.020720 0.134131
H 0.887400 0.668690 0.062890 0.137129
Cr 0.966160 0.305770 0.135770 -2.344473
Cr 0.890370 0.446520 0.943440 -2.294553
C 0.789080 0.680560 0.827600 -0.052212
C 0.850450 0.523040 0.888980 -0.051813
C 0.835450 0.544610 0.873970 -0.052721
C 0.844790 0.399460 0.933210 -0.050705
C 0.867800 0.419370 0.937730 0.276117
C 0.843590 0.418960 0.939110 0.010652
C 0.819320 0.438300 0.945420 -0.053596
C 0.041630 0.292740 0.064060 -0.049820
C 0.996950 0.287420 0.090640 0.282204
C 0.022050 0.285060 0.067820 0.011637
C 0.026100 0.276780 0.048550 -0.050726
C 0.982010 0.386110 0.087030 -0.052789
C 0.950390 0.361960 0.105960 0.273793
C 0.957600 0.386400 0.091300 0.010801
C 0.988480 0.409150 0.073190 -0.050660
C 0.978010 0.457700 0.046900 0.281195
C 0.970730 0.433280 0.063250 0.010836
C 0.939840 0.410570 0.081490 -0.055071
C 0.946260 0.433530 0.067780 -0.049923
C 0.927360 0.477880 0.965750 -0.052729
C 0.936370 0.487240 0.974800 -0.050328
C 0.008060 0.350500 0.927760 -0.050577
C 0.976960 0.393000 0.908340 0.278916
C 0.003280 0.376310 0.910280 0.010752
C 0.032500 0.335770 0.931110 -0.056395
C 0.917430 0.328620 0.172040 0.280003
C 0.052530 0.346610 0.917010 0.009867
C 0.023620 0.386690 0.895620 -0.053488
C 0.047870 0.372060 0.898890 -0.045860
O 0.788970 0.638760 0.824410 0.274773
O 0.881170 0.477350 0.916730 0.281284
O 0.806480 0.586300 0.841990 0.274958
O 0.866300 0.436800 0.943630 0.276693
O 0.930310 0.402270 0.889180 0.278085
O 0.993740 0.296480 0.106590 0.289178
O 0.969020 0.270540 0.157150 0.288359
O 0.966100 0.340630 0.116040 0.284124
O 0.928510 0.363530 0.107950 0.270629
O 0.000730 0.456640 0.042030 0.288867
O 0.961330 0.478570 0.037820 0.286847
O 0.910740 0.458600 0.946210 0.277382
O 0.956540 0.503960 0.991990 0.284794
O 0.959840 0.382380 0.918880 0.278190
O 0.896680 0.417360 0.972540 0.281567
O 0.941450 0.314920 0.165900 0.285371
O 0.910930 0.345860 0.092630 0.283538
H 0.773780 0.672530 0.842710 0.130554
H 0.840830 0.514850 0.909630 0.129493
H 0.814710 0.552510 0.883510 0.129317
H 0.863050 0.384230 0.928260 0.132231
H 0.817640 0.453660 0.950010 0.126167
H 0.039390 0.299360 0.078240 0.130240
H 0.011580 0.270820 0.050500 0.129928
H 0.996260 0.368010 0.094210 0.127756
H 0.007590 0.407970 0.070020 0.128178
H 0.920830 0.411810 0.084330 0.128943
H 0.932030 0.451510 0.060390 0.129245
H 0.908930 0.474390 0.977580 0.129788
H 0.924510 0.490490 0.993350 0.130325
H 0.992700 0.341980 0.939410 0.122764
H 0.035480 0.316240 0.945170 0.121961
H 0.020720 0.406370 0.881860 0.134123
H 0.062890 0.381020 0.887400 0.137133
Cr 0.966160 0.592300 0.305770 -2.344295
Cr 0.890370 0.719660 0.446520 -2.294894
C 0.789080 0.702770 0.680560 -0.052221
C 0.850450 0.737530 0.523040 -0.051740
C 0.835450 0.745970 0.544610 -0.052754
C 0.844790 0.822540 0.399460 -0.050662
C 0.867800 0.775110 0.419370 0.276002
C 0.843590 0.798330 0.418960 0.010644
C 0.819320 0.796960 0.438300 -0.053587
C 0.041630 0.601570 0.292740 -0.049846
C 0.996950 0.624990 0.287420 0.282121
C 0.022050 0.625060 0.285060 0.011645
C 0.026100 0.648570 0.276780 -0.050701
C 0.982010 0.544840 0.386110 -0.052716
C 0.950390 0.581690 0.361960 0.273724
C 0.957600 0.564700 0.386400 0.010793
C 0.988480 0.529170 0.409150 -0.050712
C 0.978010 0.517390 0.457700 0.281177
C 0.970730 0.532740 0.433280 0.010846
C 0.939840 0.568100 0.410570 -0.055097
C 0.946260 0.552430 0.433530 -0.049971
C 0.927360 0.629010 0.477880 -0.052675
C 0.936370 0.601590 0.487240 -0.050362
C 0.008060 0.713680 0.350500 -0.050628
C 0.976960 0.721700 0.393000 0.278946
C 0.003280 0.710130 0.376310 0.010764
C 0.032500 0.700620 0.335770 -0.056316
C 0.917430 0.581920 0.328620 0.280080
C 0.052530 0.683850 0.346610 0.009843
C 0.023620 0.694080 0.386690 -0.053496
C 0.047870 0.681190 0.372060 -0.045829
O 0.788970 0.747860 0.638760 0.274706
O 0.881170 0.724750 0.477350 0.281268
O 0.806480 0.765230 0.586300 0.274907
O 0.866300 0.753270 0.436800 0.276685
O 0.930310 0.778240 0.402270 0.278356
O 0.993740 0.603190 0.296480 0.289135
O 0.969020 0.603300 0.270540 0.288381
O 0.966100 0.577230 0.340630 0.284077
O 0.928510 0.600000 0.363530 0.270442
O 0.000730 0.500600 0.456640 0.288857
O 0.961330 0.522290 0.478570 0.286811
O 0.910740 0.684440 0.458600 0.277420
O 0.956540 0.547510 0.503960 0.284711
O 0.959840 0.738890 0.382380 0.278163
O 0.896680 0.713430 0.417360 0.281950
O 0.941450 0.577730 0.314920 0.285286
O 0.910930 0.650570 0.345860 0.283600
H 0.773780 0.710980 0.672530 0.130545
H 0.840830 0.734680 0.514850 0.129496
H 0.814710 0.749270 0.552510 0.129315
H 0.863050 0.824460 0.384230 0.132245
H 0.817640 0.778690 0.453660 0.126176
H 0.039390 0.583020 0.299360 0.130248
H 0.011580 0.667100 0.270820 0.129934
H 0.996260 0.541510 0.368010 0.127758
H 0.007590 0.514430 0.407970 0.128188
H 0.920830 0.583020 0.411810 0.128943
H 0.932030 0.556060 0.451510 0.129247
H 0.908930 0.639100 0.474390 0.129805
H 0.924510 0.591650 0.490490 0.130323
H 0.992700 0.725920 0.341980 0.122795
H 0.035480 0.703100 0.316240 0.121952
H 0.020720 0.691050 0.406370 0.134131
H 0.062890 0.668690 0.381020 0.137144
Cr 0.135770 0.305770 0.592300 -2.344605
Cr 0.943440 0.446520 0.719660 -2.294690
C 0.827600 0.680560 0.702770 -0.052250
C 0.888980 0.523040 0.737530 -0.051921
C 0.873970 0.544610 0.745970 -0.052624
C 0.933210 0.399460 0.822540 -0.050607
C 0.937730 0.419370 0.775110 0.275908
C 0.939110 0.418960 0.798330 0.010616
C 0.945420 0.438300 0.796960 -0.053594
C 0.064060 0.292740 0.601570 -0.049878
C 0.090640 0.287420 0.624990 0.282228
C 0.067820 0.285060 0.625060 0.011653
C 0.048550 0.276780 0.648570 -0.050717
C 0.087030 0.386110 0.544840 -0.052626
C 0.105960 0.361960 0.581690 0.273816
C 0.091300 0.386400 0.564700 0.010775
C 0.073190 0.409150 0.529170 -0.050889
C 0.046900 0.457700 0.517390 0.281248
C 0.063250 0.433280 0.532740 0.010879
C 0.081490 0.410570 0.568100 -0.055072
C 0.067780 0.433530 0.552430 -0.050011
C 0.965750 0.477880 0.629010 -0.052708
C 0.974800 0.487240 0.601590 -0.050341
C 0.927760 0.350500 0.713680 -0.050452
C 0.908340 0.393000 0.721700 0.278890
C 0.910280 0.376310 0.710130 0.010734
C 0.931110 0.335770 0.700620 -0.056449
C 0.172040 0.328620 0.581920 0.280065
C 0.917010 0.346610 0.683850 0.009876
C 0.895620 0.386690 0.694080 -0.053407
C 0.898890 0.372060 0.681190 -0.045908
O 0.824410 0.638760 0.747860 0.274760
O 0.916730 0.477350 0.724750 0.281249
O 0.841990 0.586300 0.765230 0.274994
O 0.943630 0.436800 0.753270 0.276563
O 0.889180 0.402270 0.778240 0.278186
O 0.106590 0.296480 0.603190 0.289211
O 0.157150 0.270540 0.603300 0.288364
O 0.116040 0.340630 0.577230 0.284156
O 0.107950 0.363530 0.600000 0.270489
O 0.042030 0.456640 0.500600 0.288871
O 0.037820 0.478570 0.522290 0.286738
O 0.946210 0.458600 0.684440 0.277310
O 0.991990 0.503960 0.547510 0.284751
O 0.918880 0.382380 0.738890 0.277845
O 0.972540 0.417360 0.713430 0.281715
O 0.165900 0.314920 0.577730 0.285437
O 0.092630 0.345860 0.650570 0.283696
H 0.842710 0.672530 0.710980 0.130574
H 0.909630 0.514850 0.734680 0.129514
H 0.883510 0.552510 0.749270 0.129308
H 0.928260 0.384230 0.824460 0.132243
H 0.950010 0.453660 0.778690 0.126154
H 0.078240 0.299360 0.583020 0.130267
H 0.050500 0.270820 0.667100 0.129948
H 0.094210 0.368010 0.541510 0.127739
H 0.070020 0.407970 0.514430 0.128228
H 0.084330 0.411810 0.583020 0.128969
H 0.060390 0.451510 0.556060 0.129261
H 0.977580 0.474390 0.639100 0.129802
H 0.993350 0.490490 0.591650 0.130323
H 0.939410 0.341980 0.725920 0.122771
H 0.945170 0.316240 0.703100 0.121985
H 0.881860 0.406370 0.691050 0.134139
H 0.887400 0.381020 0.668690 0.137098
Cr 0.305770 0.135770 0.966160 -2.344473
Cr 0.446520 0.943440 0.890370 -2.294553
C 0.680560 0.827600 0.789080 -0.052212
C 0.523040 0.888980 0.850450 -0.051813
C 0.544610 0.873970 0.835450 -0.052721
C 0.399460 0.933210 0.844790 -0.050705
C 0.419370 0.937730 0.867800 0.276117
C 0.418960 0.939110 0.843590 0.010652
C 0.438300 0.945420 0.819320 -0.053596
C 0.292740 0.064060 0.041630 -0.049820
C 0.287420 0.090640 0.996950 0.282204
C 0.285060 0.067820 0.022050 0.011637
C 0.276780 0.048550 0.026100 -0.050726
C 0.386110 0.087030 0.982010 -0.052789
C 0.361960 0.105960 0.950390 0.273793
C 0.386400 0.091300 0.957600 0.010801
C 0.409150 0.073190 0.988480 -0.050660
C 0.457700 0.046900 0.978010 0.281195
C 0.433280 0.063250 0.970730 0.010836
C 0.410570 0.081490 0.939840 -0.055071
C 0.433530 0.067780 0.946260 -0.049923
C 0.477880 0.965750 0.927360 -0.052729
C 0.487240 0.974800 0.936370 -0.050328
C 0.350500 0.927760 0.008060 -0.050577
C 0.393000 0.908340 0.976960 0.278916
C 0.376310 0.910280 0.003280 0.010752
C 0.335770 0.931110 0.032500 -0.056395
C 0.328620 0.172040 0.917430 0.280003
C 0.346610 0.917010 0.052530 0.009867
C 0.386690 0.895620 0.023620 -0.053488
C 0.372060 0.898890 0.047870 -0.045860
O 0.638760 0.824410 0.788970 0.274773
O 0.477350 0.916730 0.881170 0.281284
O 0.586300 0.841990 0.806480 0.274958
O 0.436800 0.943630 0.866300 0.276693
O 0.402270 0.889180 0.930310 0.278085
O 0.296480 0.106590 0.993740 0.289178
O 0.270540 0.157150 0.969020 0.288359
O 0.340630 0.116040 0.966100 0.284124
O 0.363530 0.107950 0.928510 0.270629
O 0.456640 0.042030 0.000730 0.288867
O 0.478570 0.037820 0.961330 0.286847
O 0.458600 0.946210 0.910740 0.277382
O 0.503960 0.991990 0.956540 0.284794
O 0.382380 0.918880 0.959840 0.278190
O 0.417360 0.972540 0.896680 0.281567
O 0.314920 0.165900 0.941450 0.285371
O 0.345860 0.092630 0.910930 0.283538
H 0.672530 0.842710 0.773780 0.130554
H 0.514850 0.909630 0.840830 0.129493
H 0.552510 0.883510 0.814710 0.129317
H 0.384230 0.928260 0.863050 0.132231
H 0.453660 0.950010 0.817640 0.126167
H 0.299360 0.078240 0.039390 0.130240
H 0.270820 0.050500 0.011580 0.129928
H 0.368010 0.094210 0.996260 0.127756
H 0.407970 0.070020 0.007590 0.128178
H 0.411810 0.084330 0.920830 0.128943
H 0.451510 0.060390 0.932030 0.129245
H 0.474390 0.977580 0.908930 0.129788
H 0.490490 0.993350 0.924510 0.130325
H 0.341980 0.939410 0.992700 0.122764
H 0.316240 0.945170 0.035480 0.121961
H 0.406370 0.881860 0.020720 0.134123
H 0.381020 0.887400 0.062890 0.137133
Cr 0.592300 0.966160 0.135770 -2.344751
Cr 0.719660 0.890370 0.943440 -2.295118
C 0.702770 0.789080 0.827600 -0.052237
C 0.737530 0.850450 0.888980 -0.051814
C 0.745970 0.835450 0.873970 -0.052721
C 0.822540 0.844790 0.933210 -0.050656
C 0.775110 0.867800 0.937730 0.275960
C 0.798330 0.843590 0.939110 0.010640
C 0.796960 0.819320 0.945420 -0.053568
C 0.601570 0.041630 0.064060 -0.049861
C 0.624990 0.996950 0.090640 0.282189
C 0.625060 0.022050 0.067820 0.011640
C 0.648570 0.026100 0.048550 -0.050704
C 0.544840 0.982010 0.087030 -0.052790
C 0.581690 0.950390 0.105960 0.273881
C 0.564700 0.957600 0.091300 0.010798
C 0.529170 0.988480 0.073190 -0.050686
C 0.517390 0.978010 0.046900 0.281248
C 0.532740 0.970730 0.063250 0.010842
C 0.568100 0.939840 0.081490 -0.055078
C 0.552430 0.946260 0.067780 -0.049921
C 0.629010 0.927360 0.965750 -0.052671
C 0.601590 0.936370 0.974800 -0.050358
C 0.713680 0.008060 0.927760 -0.050410
C 0.721700 0.976960 0.908340 0.278804
C 0.710130 0.003280 0.910280 0.010733
C 0.700620 0.032500 0.931110 -0.056533
C 0.581920 0.917430 0.172040 0.280078
C 0.683850 0.052530 0.917010 0.009890
C 0.694080 0.023620 0.895620 -0.053367
C 0.681190 0.047870 0.898890 -0.045907
O 0.747860 0.788970 0.824410 0.274721
O 0.724750 0.881170 0.916730 0.281521
O 0.765230 0.806480 0.841990 0.274918
O 0.753270 0.866300 0.943630 0.276705
O 0.778240 0.930310 0.889180 0.278074
O 0.603190 0.993740 0.106590 0.289240
O 0.603300 0.969020 0.157150 0.288226
O 0.577230 0.966100 0.116040 0.284189
O 0.600000 0.928510 0.107950 0.270462
O 0.500600 0.000730 0.042030 0.288879
O 0.522290 0.961330 0.037820 0.286630
O 0.684440 0.910740 0.946210 0.277457
O 0.547510 0.956540 0.991990 0.284803
O 0.738890 0.959840 0.918880 0.278109
O 0.713430 0.896680 0.972540 0.281518
O 0.577730 0.941450 0.165900 0.285414
O 0.650570 0.910930 0.092630 0.283649
H 0.710980 0.773780 0.842710 0.130562
H 0.734680 0.840830 0.909630 0.129519
H 0.749270 0.814710 0.883510 0.129318
H 0.824460 0.863050 0.928260 0.132248
H 0.778690 0.817640 0.950010 0.126189
H 0.583020 0.039390 0.078240 0.130271
H 0.667100 0.011580 0.050500 0.129944
H 0.541510 0.996260 0.094210 0.127750
H 0.514430 0.007590 0.070020 0.128172
H 0.583020 0.920830 0.084330 0.128947
H 0.556060 0.932030 0.060390 0.129262
H 0.639100 0.908930 0.977580 0.129816
H 0.591650 0.924510 0.993350 0.130333
H 0.725920 0.992700 0.939410 0.122767
H 0.703100 0.035480 0.945170 0.121991
H 0.691050 0.020720 0.881860 0.134131
H 0.668690 0.062890 0.887400 0.137129
Cr 0.135770 0.966160 0.592300 -2.344751
Cr 0.943440 0.890370 0.719660 -2.295118
C 0.827600 0.789080 0.702770 -0.052237
C 0.888980 0.850450 0.737530 -0.051814
C 0.873970 0.835450 0.745970 -0.052721
C 0.933210 0.844790 0.822540 -0.050656
C 0.937730 0.867800 0.775110 0.275960
C 0.939110 0.843590 0.798330 0.010640
C 0.945420 0.819320 0.796960 -0.053568
C 0.064060 0.041630 0.601570 -0.049861
C 0.090640 0.996950 0.624990 0.282189
C 0.067820 0.022050 0.625060 0.011640
C 0.048550 0.026100 0.648570 -0.050704
C 0.087030 0.982010 0.544840 -0.052790
C 0.105960 0.950390 0.581690 0.273881
C 0.091300 0.957600 0.564700 0.010798
C 0.073190 0.988480 0.529170 -0.050686
C 0.046900 0.978010 0.517390 0.281248
C 0.063250 0.970730 0.532740 0.010842
C 0.081490 0.939840 0.568100 -0.055078
C 0.067780 0.946260 0.552430 -0.049921
C 0.965750 0.927360 0.629010 -0.052671
C 0.974800 0.936370 0.601590 -0.050358
C 0.927760 0.008060 0.713680 -0.050410
C 0.908340 0.976960 0.721700 0.278804
C 0.910280 0.003280 0.710130 0.010733
C 0.931110 0.032500 0.700620 -0.056533
C 0.172040 0.917430 0.581920 0.280078
C 0.917010 0.052530 0.683850 0.009890
C 0.895620 0.023620 0.694080 -0.053367
C 0.898890 0.047870 0.681190 -0.045907
O 0.824410 0.788970 0.747860 0.274721
O 0.916730 0.881170 0.724750 0.281521
O 0.841990 0.806480 0.765230 0.274918
O 0.943630 0.866300 0.753270 0.276705
O 0.889180 0.930310 0.778240 0.278074
O 0.106590 0.993740 0.603190 0.289240
O 0.157150 0.969020 0.603300 0.288226
O 0.116040 0.966100 0.577230 0.284189
O 0.107950 0.928510 0.600000 0.270462
O 0.042030 0.000730 0.500600 0.288879
O 0.037820 0.961330 0.522290 0.286630
O 0.946210 0.910740 0.684440 0.277457
O 0.991990 0.956540 0.547510 0.284803
O 0.918880 0.959840 0.738890 0.278109
O 0.972540 0.896680 0.713430 0.281518
O 0.165900 0.941450 0.577730 0.285414
O 0.092630 0.910930 0.650570 0.283649
H 0.842710 0.773780 0.710980 0.130562
H 0.909630 0.840830 0.734680 0.129519
H 0.883510 0.814710 0.749270 0.129318
H 0.928260 0.863050 0.824460 0.132248
H 0.950010 0.817640 0.778690 0.126189
H 0.078240 0.039390 0.583020 0.130271
H 0.050500 0.011580 0.667100 0.129944
H 0.094210 0.996260 0.541510 0.127750
H 0.070020 0.007590 0.514430 0.128172
H 0.084330 0.920830 0.583020 0.128947
H 0.060390 0.932030 0.556060 0.129262
H 0.977580 0.908930 0.639100 0.129816
H 0.993350 0.924510 0.591650 0.130333
H 0.939410 0.992700 0.725920 0.122767
H 0.945170 0.035480 0.703100 0.121991
H 0.881860 0.020720 0.691050 0.134131
H 0.887400 0.062890 0.668690 0.137129
Cr 0.966160 0.135770 0.305770 -2.344473
Cr 0.890370 0.943440 0.446520 -2.294553
C 0.789080 0.827600 0.680560 -0.052212
C 0.850450 0.888980 0.523040 -0.051813
C 0.835450 0.873970 0.544610 -0.052721
C 0.844790 0.933210 0.399460 -0.050705
C 0.867800 0.937730 0.419370 0.276117
C 0.843590 0.939110 0.418960 0.010652
C 0.819320 0.945420 0.438300 -0.053596
C 0.041630 0.064060 0.292740 -0.049820
C 0.996950 0.090640 0.287420 0.282204
C 0.022050 0.067820 0.285060 0.011637
C 0.026100 0.048550 0.276780 -0.050726
C 0.982010 0.087030 0.386110 -0.052789
C 0.950390 0.105960 0.361960 0.273793
C 0.957600 0.091300 0.386400 0.010801
C 0.988480 0.073190 0.409150 -0.050660
C 0.978010 0.046900 0.457700 0.281195
C 0.970730 0.063250 0.433280 0.010836
C 0.939840 0.081490 0.410570 -0.055071
C 0.946260 0.067780 0.433530 -0.049923
C 0.927360 0.965750 0.477880 -0.052729
C 0.936370 0.974800 0.487240 -0.050328
C 0.008060 0.927760 0.350500 -0.050577
C 0.976960 0.908340 0.393000 0.278916
C 0.003280 0.910280 0.376310 0.010752
C 0.032500 0.931110 0.335770 -0.056395
C 0.917430 0.172040 0.328620 0.280003
C 0.052530 0.917010 0.346610 0.009867
C 0.023620 0.895620 0.386690 -0.053488
C 0.047870 0.898890 0.372060 -0.045860
O 0.788970 0.824410 0.638760 0.274773
O 0.881170 0.916730 0.477350 0.281284
O 0.806480 0.841990 0.586300 0.274958
O 0.866300 0.943630 0.436800 0.276693
O 0.930310 0.889180 0.402270 0.278085
O 0.993740 0.106590 0.296480 0.289178
O 0.969020 0.157150 0.270540 0.288359
O 0.966100 0.116040 0.340630 0.284124
O 0.928510 0.107950 0.363530 0.270629
O 0.000730 0.042030 0.456640 0.288867
O 0.961330 0.037820 0.478570 0.286847
O 0.910740 0.946210 0.458600 0.277382
O 0.956540 0.991990 0.503960 0.284794
O 0.959840 0.918880 0.382380 0.278190
O 0.896680 0.972540 0.417360 0.281567
O 0.941450 0.165900 0.314920 0.285371
O 0.910930 0.092630 0.345860 0.283538
H 0.773780 0.842710 0.672530 0.130554
H 0.840830 0.909630 0.514850 0.129493
H 0.814710 0.883510 0.552510 0.129317
H 0.863050 0.928260 0.384230 0.132231
H 0.817640 0.950010 0.453660 0.126167
H 0.039390 0.078240 0.299360 0.130240
H 0.011580 0.050500 0.270820 0.129928
H 0.996260 0.094210 0.368010 0.127756
H 0.007590 0.070020 0.407970 0.128178
H 0.920830 0.084330 0.411810 0.128943
H 0.932030 0.060390 0.451510 0.129245
H 0.908930 0.977580 0.474390 0.129788
H 0.924510 0.993350 0.490490 0.130325
H 0.992700 0.939410 0.341980 0.122764
H 0.035480 0.945170 0.316240 0.121961
H 0.020720 0.881860 0.406370 0.134123
H 0.062890 0.887400 0.381020 0.137133
Cr 0.592300 0.305770 0.135770 -2.344605
Cr 0.719660 0.446520 0.943440 -2.294690
C 0.702770 0.680560 0.827600 -0.052250
C 0.737530 0.523040 0.888980 -0.051921
C 0.745970 0.544610 0.873970 -0.052624
C 0.822540 0.399460 0.933210 -0.050607
C 0.775110 0.419370 0.937730 0.275908
C 0.798330 0.418960 0.939110 0.010616
C 0.796960 0.438300 0.945420 -0.053594
C 0.601570 0.292740 0.064060 -0.049878
C 0.624990 0.287420 0.090640 0.282228
C 0.625060 0.285060 0.067820 0.011653
C 0.648570 0.276780 0.048550 -0.050717
C 0.544840 0.386110 0.087030 -0.052626
C 0.581690 0.361960 0.105960 0.273816
C 0.564700 0.386400 0.091300 0.010775
C 0.529170 0.409150 0.073190 -0.050889
C 0.517390 0.457700 0.046900 0.281248
C 0.532740 0.433280 0.063250 0.010879
C 0.568100 0.410570 0.081490 -0.055072
C 0.552430 0.433530 0.067780 -0.050011
C 0.629010 0.477880 0.965750 -0.052708
C 0.601590 0.487240 0.974800 -0.050341
C 0.713680 0.350500 0.927760 -0.050452
C 0.721700 0.393000 0.908340 0.278890
C 0.710130 0.376310 0.910280 0.010734
C 0.700620 0.335770 0.931110 -0.056449
C 0.581920 0.328620 0.172040 0.280065
C 0.683850 0.346610 0.917010 0.009876
C 0.694080 0.386690 0.895620 -0.053407
C 0.681190 0.372060 0.898890 -0.045908
O 0.747860 0.638760 0.824410 0.274760
O 0.724750 0.477350 0.916730 0.281249
O 0.765230 0.586300 0.841990 0.274994
O 0.753270 0.436800 0.943630 0.276563
O 0.778240 0.402270 0.889180 0.278186
O 0.603190 0.296480 0.106590 0.289211
O 0.603300 0.270540 0.157150 0.288364
O 0.577230 0.340630 0.116040 0.284156
O 0.600000 0.363530 0.107950 0.270489
O 0.500600 0.456640 0.042030 0.288871
O 0.522290 0.478570 0.037820 0.286738
O 0.684440 0.458600 0.946210 0.277310
O 0.547510 0.503960 0.991990 0.284751
O 0.738890 0.382380 0.918880 0.277845
O 0.713430 0.417360 0.972540 0.281715
O 0.577730 0.314920 0.165900 0.285437
O 0.650570 0.345860 0.092630 0.283696
H 0.710980 0.672530 0.842710 0.130574
H 0.734680 0.514850 0.909630 0.129514
H 0.749270 0.552510 0.883510 0.129308
H 0.824460 0.384230 0.928260 0.132243
H 0.778690 0.453660 0.950010 0.126154
H 0.583020 0.299360 0.078240 0.130267
H 0.667100 0.270820 0.050500 0.129948
H 0.541510 0.368010 0.094210 0.127739
H 0.514430 0.407970 0.070020 0.128228
H 0.583020 0.411810 0.084330 0.128969
H 0.556060 0.451510 0.060390 0.129261
H 0.639100 0.474390 0.977580 0.129802
H 0.591650 0.490490 0.993350 0.130323
H 0.725920 0.341980 0.939410 0.122771
H 0.703100 0.316240 0.945170 0.121985
H 0.691050 0.406370 0.881860 0.134139
H 0.668690 0.381020 0.887400 0.137098
Cr 0.305770 0.592300 0.966160 -2.344295
Cr 0.446520 0.719660 0.890370 -2.294894
C 0.680560 0.702770 0.789080 -0.052221
C 0.523040 0.737530 0.850450 -0.051740
C 0.544610 0.745970 0.835450 -0.052754
C 0.399460 0.822540 0.844790 -0.050662
C 0.419370 0.775110 0.867800 0.276002
C 0.418960 0.798330 0.843590 0.010644
C 0.438300 0.796960 0.819320 -0.053587
C 0.292740 0.601570 0.041630 -0.049846
C 0.287420 0.624990 0.996950 0.282121
C 0.285060 0.625060 0.022050 0.011645
C 0.276780 0.648570 0.026100 -0.050701
C 0.386110 0.544840 0.982010 -0.052716
C 0.361960 0.581690 0.950390 0.273724
C 0.386400 0.564700 0.957600 0.010793
C 0.409150 0.529170 0.988480 -0.050712
C 0.457700 0.517390 0.978010 0.281177
C 0.433280 0.532740 0.970730 0.010846
C 0.410570 0.568100 0.939840 -0.055097
C 0.433530 0.552430 0.946260 -0.049971
C 0.477880 0.629010 0.927360 -0.052675
C 0.487240 0.601590 0.936370 -0.050362
C 0.350500 0.713680 0.008060 -0.050628
C 0.393000 0.721700 0.976960 0.278946
C 0.376310 0.710130 0.003280 0.010764
C 0.335770 0.700620 0.032500 -0.056316
C 0.328620 0.581920 0.917430 0.280080
C 0.346610 0.683850 0.052530 0.009843
C 0.386690 0.694080 0.023620 -0.053496
C 0.372060 0.681190 0.047870 -0.045829
O 0.638760 0.747860 0.788970 0.274706
O 0.477350 0.724750 0.881170 0.281268
O 0.586300 0.765230 0.806480 0.274907
O 0.436800 0.753270 0.866300 0.276685
O 0.402270 0.778240 0.930310 0.278356
O 0.296480 0.603190 0.993740 0.289135
O 0.270540 0.603300 0.969020 0.288381
O 0.340630 0.577230 0.966100 0.284077
O 0.363530 0.600000 0.928510 0.270442
O 0.456640 0.500600 0.000730 0.288857
O 0.478570 0.522290 0.961330 0.286811
O 0.458600 0.684440 0.910740 0.277420
O 0.503960 0.547510 0.956540 0.284711
O 0.382380 0.738890 0.959840 0.278163
O 0.417360 0.713430 0.896680 0.281950
O 0.314920 0.577730 0.941450 0.285286
O 0.345860 0.650570 0.910930 0.283600
H 0.672530 0.710980 0.773780 0.130545
H 0.514850 0.734680 0.840830 0.129496
H 0.552510 0.749270 0.814710 0.129315
H 0.384230 0.824460 0.863050 0.132245
H 0.453660 0.778690 0.817640 0.126176
H 0.299360 0.583020 0.039390 0.130248
H 0.270820 0.667100 0.011580 0.129934
H 0.368010 0.541510 0.996260 0.127758
H 0.407970 0.514430 0.007590 0.128188
H 0.411810 0.583020 0.920830 0.128943
H 0.451510 0.556060 0.932030 0.129247
H 0.474390 0.639100 0.908930 0.129805
H 0.490490 0.591650 0.924510 0.130323
H 0.341980 0.725920 0.992700 0.122795
H 0.316240 0.703100 0.035480 0.121952
H 0.406370 0.691050 0.020720 0.134131
H 0.381020 0.668690 0.062890 0.137144
Cr 0.592300 0.135770 0.966160 -2.344751
Cr 0.719660 0.943440 0.890370 -2.295118
C 0.702770 0.827600 0.789080 -0.052237
C 0.737530 0.888980 0.850450 -0.051814
C 0.745970 0.873970 0.835450 -0.052721
C 0.822540 0.933210 0.844790 -0.050656
C 0.775110 0.937730 0.867800 0.275960
C 0.798330 0.939110 0.843590 0.010640
C 0.796960 0.945420 0.819320 -0.053568
C 0.601570 0.064060 0.041630 -0.049861
C 0.624990 0.090640 0.996950 0.282189
C 0.625060 0.067820 0.022050 0.011640
C 0.648570 0.048550 0.026100 -0.050704
C 0.544840 0.087030 0.982010 -0.052790
C 0.581690 0.105960 0.950390 0.273881
C 0.564700 0.091300 0.957600 0.010798
C 0.529170 0.073190 0.988480 -0.050686
C 0.517390 0.046900 0.978010 0.281248
C 0.532740 0.063250 0.970730 0.010842
C 0.568100 0.081490 0.939840 -0.055078
C 0.552430 0.067780 0.946260 -0.049921
C 0.629010 0.965750 0.927360 -0.052671
C 0.601590 0.974800 0.936370 -0.050358
C 0.713680 0.927760 0.008060 -0.050410
C 0.721700 0.908340 0.976960 0.278804
C 0.710130 0.910280 0.003280 0.010733
C 0.700620 0.931110 0.032500 -0.056533
C 0.581920 0.172040 0.917430 0.280078
C 0.683850 0.917010 0.052530 0.009890
C 0.694080 0.895620 0.023620 -0.053367
C 0.681190 0.898890 0.047870 -0.045907
O 0.747860 0.824410 0.788970 0.274721
O 0.724750 0.916730 0.881170 0.281521
O 0.765230 0.841990 0.806480 0.274918
O 0.753270 0.943630 0.866300 0.276705
O 0.778240 0.889180 0.930310 0.278074
O 0.603190 0.106590 0.993740 0.289240
O 0.603300 0.157150 0.969020 0.288226
O 0.577230 0.116040 0.966100 0.284189
O 0.600000 0.107950 0.928510 0.270462
O 0.500600 0.042030 0.000730 0.288879
O 0.522290 0.037820 0.961330 0.286630
O 0.684440 0.946210 0.910740 0.277457
O 0.547510 0.991990 0.956540 0.284803
O 0.738890 0.918880 0.959840 0.278109
O 0.713430 0.972540 0.896680 0.281518
O 0.577730 0.165900 0.941450 0.285414
O 0.650570 0.092630 0.910930 0.283649
H 0.710980 0.842710 0.773780 0.130562
H 0.734680 0.909630 0.840830 0.129519
H 0.749270 0.883510 0.814710 0.129318
H 0.824460 0.928260 0.863050 0.132248
H 0.778690 0.950010 0.817640 0.126189
H 0.583020 0.078240 0.039390 0.130271
H 0.667100 0.050500 0.011580 0.129944
H 0.541510 0.094210 0.996260 0.127750
H 0.514430 0.070020 0.007590 0.128172
H 0.583020 0.084330 0.920830 0.128947
H 0.556060 0.060390 0.932030 0.129262
H 0.639100 0.977580 0.908930 0.129816
H 0.591650 0.993350 0.924510 0.130333
H 0.725920 0.939410 0.992700 0.122767
H 0.703100 0.945170 0.035480 0.121991
H 0.691050 0.881860 0.020720 0.134131
H 0.668690 0.887400 0.062890 0.137129
Cr 0.305770 0.966160 0.135770 -2.344473
Cr 0.446520 0.890370 0.943440 -2.294553
C 0.680560 0.789080 0.827600 -0.052212
C 0.523040 0.850450 0.888980 -0.051813
C 0.544610 0.835450 0.873970 -0.052721
C 0.399460 0.844790 0.933210 -0.050705
C 0.419370 0.867800 0.937730 0.276117
C 0.418960 0.843590 0.939110 0.010652
C 0.438300 0.819320 0.945420 -0.053596
C 0.292740 0.041630 0.064060 -0.049820
C 0.287420 0.996950 0.090640 0.282204
C 0.285060 0.022050 0.067820 0.011637
C 0.276780 0.026100 0.048550 -0.050726
C 0.386110 0.982010 0.087030 -0.052789
C 0.361960 0.950390 0.105960 0.273793
C 0.386400 0.957600 0.091300 0.010801
C 0.409150 0.988480 0.073190 -0.050660
C 0.457700 0.978010 0.046900 0.281195
C 0.433280 0.970730 0.063250 0.010836
C 0.410570 0.939840 0.081490 -0.055071
C 0.433530 0.946260 0.067780 -0.049923
C 0.477880 0.927360 0.965750 -0.052729
C 0.487240 0.936370 0.974800 -0.050328
C 0.350500 0.008060 0.927760 -0.050577
C 0.393000 0.976960 0.908340 0.278916
C 0.376310 0.003280 0.910280 0.010752
C 0.335770 0.032500 0.931110 -0.056395
C 0.328620 0.917430 0.172040 0.280003
C 0.346610 0.052530 0.917010 0.009867
C 0.386690 0.023620 0.895620 -0.053488
C 0.372060 0.047870 0.898890 -0.045860
O 0.638760 0.788970 0.824410 0.274773
O 0.477350 0.881170 0.916730 0.281284
O 0.586300 0.806480 0.841990 0.274958
O 0.436800 0.866300 0.943630 0.276693
O 0.402270 0.930310 0.889180 0.278085
O 0.296480 0.993740 0.106590 0.289178
O 0.270540 0.969020 0.157150 0.288359
O 0.340630 0.966100 0.116040 0.284124
O 0.363530 0.928510 0.107950 0.270629
O 0.456640 0.000730 0.042030 0.288867
O 0.478570 0.961330 0.037820 0.286847
O 0.458600 0.910740 0.946210 0.277382
O 0.503960 0.956540 0.991990 0.284794
O 0.382380 0.959840 0.918880 0.278190
O 0.417360 0.896680 0.972540 0.281567
O 0.314920 0.941450 0.165900 0.285371
O 0.345860 0.910930 0.092630 0.283538
H 0.672530 0.773780 0.842710 0.130554
H 0.514850 0.840830 0.909630 0.129493
H 0.552510 0.814710 0.883510 0.129317
H 0.384230 0.863050 0.928260 0.132231
H 0.453660 0.817640 0.950010 0.126167
H 0.299360 0.039390 0.078240 0.130240
H 0.270820 0.011580 0.050500 0.129928
H 0.368010 0.996260 0.094210 0.127756
H 0.407970 0.007590 0.070020 0.128178
H 0.411810 0.920830 0.084330 0.128943
H 0.451510 0.932030 0.060390 0.129245
H 0.474390 0.908930 0.977580 0.129788
H 0.490490 0.924510 0.993350 0.130325
H 0.341980 0.992700 0.939410 0.122764
H 0.316240 0.035480 0.945170 0.121961
H 0.406370 0.020720 0.881860 0.134123
H 0.381020 0.062890 0.887400 0.137133
Cr 0.135770 0.592300 0.305770 -2.344605
Cr 0.943440 0.719660 0.446520 -2.294690
C 0.827600 0.702770 0.680560 -0.052250
C 0.888980 0.737530 0.523040 -0.051921
C 0.873970 0.745970 0.544610 -0.052624
C 0.933210 0.822540 0.399460 -0.050607
C 0.937730 0.775110 0.419370 0.275908
C 0.939110 0.798330 0.418960 0.010616
C 0.945420 0.796960 0.438300 -0.053594
C 0.064060 0.601570 0.292740 -0.049878
C 0.090640 0.624990 0.287420 0.282228
C 0.067820 0.625060 0.285060 0.011653
C 0.048550 0.648570 0.276780 -0.050717
C 0.087030 0.544840 0.386110 -0.052626
C 0.105960 0.581690 0.361960 0.273816
C 0.091300 0.564700 0.386400 0.010775
C 0.073190 0.529170 0.409150 -0.050889
C 0.046900 0.517390 0.457700 0.281248
C 0.063250 0.532740 0.433280 0.010879
C 0.081490 0.568100 0.410570 -0.055072
C 0.067780 0.552430 0.433530 -0.050011
C 0.965750 0.629010 0.477880 -0.052708
C 0.974800 0.601590 0.487240 -0.050341
C 0.927760 0.713680 0.350500 -0.050452
C 0.908340 0.721700 0.393000 0.278890
C 0.910280 0.710130 0.376310 0.010734
C 0.931110 0.700620 0.335770 -0.056449
C 0.172040 0.581920 0.328620 0.280065
C 0.917010 0.683850 0.346610 0.009876
C 0.895620 0.694080 0.386690 -0.053407
C 0.898890 0.681190 0.372060 -0.045908
O 0.824410 0.747860 0.638760 0.274760
O 0.916730 0.724750 0.477350 0.281249
O 0.841990 0.765230 0.586300 0.274994
O 0.943630 0.753270 0.436800 0.276563
O 0.889180 0.778240 0.402270 0.278186
O 0.106590 0.603190 0.296480 0.289211
O 0.157150 0.603300 0.270540 0.288364
O 0.116040 0.577230 0.340630 0.284156
O 0.107950 0.600000 0.363530 0.270489
O 0.042030 0.500600 0.456640 0.288871
O 0.037820 0.522290 0.478570 0.286738
O 0.946210 0.684440 0.458600 0.277310
O 0.991990 0.547510 0.503960 0.284751
O 0.918880 0.738890 0.382380 0.277845
O 0.972540 0.713430 0.417360 0.281715
O 0.165900 0.577730 0.314920 0.285437
O 0.092630 0.650570 0.345860 0.283696
H 0.842710 0.710980 0.672530 0.130574
H 0.909630 0.734680 0.514850 0.129514
H 0.883510 0.749270 0.552510 0.129308
H 0.928260 0.824460 0.384230 0.132243
H 0.950010 0.778690 0.453660 0.126154
H 0.078240 0.583020 0.299360 0.130267
H 0.050500 0.667100 0.270820 0.129948
H 0.094210 0.541510 0.368010 0.127739
H 0.070020 0.514430 0.407970 0.128228
H 0.084330 0.583020 0.411810 0.128969
H 0.060390 0.556060 0.451510 0.129261
H 0.977580 0.639100 0.474390 0.129802
H 0.993350 0.591650 0.490490 0.130323
H 0.939410 0.725920 0.341980 0.122771
H 0.945170 0.703100 0.316240 0.121985
H 0.881860 0.691050 0.406370 0.134139
H 0.887400 0.668690 0.381020 0.137098
Cr 0.966160 0.305770 0.592300 -2.344295
Cr 0.890370 0.446520 0.719660 -2.294894
C 0.789080 0.680560 0.702770 -0.052221
C 0.850450 0.523040 0.737530 -0.051740
C 0.835450 0.544610 0.745970 -0.052754
C 0.844790 0.399460 0.822540 -0.050662
C 0.867800 0.419370 0.775110 0.276002
C 0.843590 0.418960 0.798330 0.010644
C 0.819320 0.438300 0.796960 -0.053587
C 0.041630 0.292740 0.601570 -0.049846
C 0.996950 0.287420 0.624990 0.282121
C 0.022050 0.285060 0.625060 0.011645
C 0.026100 0.276780 0.648570 -0.050701
C 0.982010 0.386110 0.544840 -0.052716
C 0.950390 0.361960 0.581690 0.273724
C 0.957600 0.386400 0.564700 0.010793
C 0.988480 0.409150 0.529170 -0.050712
C 0.978010 0.457700 0.517390 0.281177
C 0.970730 0.433280 0.532740 0.010846
C 0.939840 0.410570 0.568100 -0.055097
C 0.946260 0.433530 0.552430 -0.049971
C 0.927360 0.477880 0.629010 -0.052675
C 0.936370 0.487240 0.601590 -0.050362
C 0.008060 0.350500 0.713680 -0.050628
C 0.976960 0.393000 0.721700 0.278946
C 0.003280 0.376310 0.710130 0.010764
C 0.032500 0.335770 0.700620 -0.056316
C 0.917430 0.328620 0.581920 0.280080
C 0.052530 0.346610 0.683850 0.009843
C 0.023620 0.386690 0.694080 -0.053496
C 0.047870 0.372060 0.681190 -0.045829
O 0.788970 0.638760 0.747860 0.274706
O 0.881170 0.477350 0.724750 0.281268
O 0.806480 0.586300 0.765230 0.274907
O 0.866300 0.436800 0.753270 0.276685
O 0.930310 0.402270 0.778240 0.278356
O 0.993740 0.296480 0.603190 0.289135
O 0.969020 0.270540 0.603300 0.288381
O 0.966100 0.340630 0.577230 0.284077
O 0.928510 0.363530 0.600000 0.270442
O 0.000730 0.456640 0.500600 0.288857
O 0.961330 0.478570 0.522290 0.286811
O 0.910740 0.458600 0.684440 0.277420
O 0.956540 0.503960 0.547510 0.284711
O 0.959840 0.382380 0.738890 0.278163
O 0.896680 0.417360 0.713430 0.281950
O 0.941450 0.314920 0.577730 0.285286
O 0.910930 0.345860 0.650570 0.283600
H 0.773780 0.672530 0.710980 0.130545
H 0.840830 0.514850 0.734680 0.129496
H 0.814710 0.552510 0.749270 0.129315
H 0.863050 0.384230 0.824460 0.132245
H 0.817640 0.453660 0.778690 0.126176
H 0.039390 0.299360 0.583020 0.130248
H 0.011580 0.270820 0.667100 0.129934
H 0.996260 0.368010 0.541510 0.127758
H 0.007590 0.407970 0.514430 0.128188
H 0.920830 0.411810 0.583020 0.128943
H 0.932030 0.451510 0.556060 0.129247
H 0.908930 0.474390 0.639100 0.129805
H 0.924510 0.490490 0.591650 0.130323
H 0.992700 0.341980 0.725920 0.122795
H 0.035480 0.316240 0.703100 0.121952
H 0.020720 0.406370 0.691050 0.134131
H 0.062890 0.381020 0.668690 0.137144
Cr 0.966160 0.592300 0.135770 -2.344751
Cr 0.890370 0.719660 0.943440 -2.295118
C 0.789080 0.702770 0.827600 -0.052237
C 0.850450 0.737530 0.888980 -0.051814
C 0.835450 0.745970 0.873970 -0.052721
C 0.844790 0.822540 0.933210 -0.050656
C 0.867800 0.775110 0.937730 0.275960
C 0.843590 0.798330 0.939110 0.010640
C 0.819320 0.796960 0.945420 -0.053568
C 0.041630 0.601570 0.064060 -0.049861
C 0.996950 0.624990 0.090640 0.282189
C 0.022050 0.625060 0.067820 0.011640
C 0.026100 0.648570 0.048550 -0.050704
C 0.982010 0.544840 0.087030 -0.052790
C 0.950390 0.581690 0.105960 0.273881
C 0.957600 0.564700 0.091300 0.010798
C 0.988480 0.529170 0.073190 -0.050686
C 0.978010 0.517390 0.046900 0.281248
C 0.970730 0.532740 0.063250 0.010842
C 0.939840 0.568100 0.081490 -0.055078
C 0.946260 0.552430 0.067780 -0.049921
C 0.927360 0.629010 0.965750 -0.052671
C 0.936370 0.601590 0.974800 -0.050358
C 0.008060 0.713680 0.927760 -0.050410
C 0.976960 0.721700 0.908340 0.278804
C 0.003280 0.710130 0.910280 0.010733
C 0.032500 0.700620 0.931110 -0.056533
C 0.917430 0.581920 0.172040 0.280078
C 0.052530 0.683850 0.917010 0.009890
C 0.023620 0.694080 0.895620 -0.053367
C 0.047870 0.681190 0.898890 -0.045907
O 0.788970 0.747860 0.824410 0.274721
O 0.881170 0.724750 0.916730 0.281521
O 0.806480 0.765230 0.841990 0.274918
O 0.866300 0.753270 0.943630 0.276705
O 0.930310 0.778240 0.889180 0.278074
O 0.993740 0.603190 0.106590 0.289240
O 0.969020 0.603300 0.157150 0.288226
O 0.966100 0.577230 0.116040 0.284189
O 0.928510 0.600000 0.107950 0.270462
O 0.000730 0.500600 0.042030 0.288879
O 0.961330 0.522290 0.037820 0.286630
O 0.910740 0.684440 0.946210 0.277457
O 0.956540 0.547510 0.991990 0.284803
O 0.959840 0.738890 0.918880 0.278109
O 0.896680 0.713430 0.972540 0.281518
O 0.941450 0.577730 0.165900 0.285414
O 0.910930 0.650570 0.092630 0.283649
H 0.773780 0.710980 0.842710 0.130562
H 0.840830 0.734680 0.909630 0.129519
H 0.814710 0.749270 0.883510 0.129318
H 0.863050 0.824460 0.928260 0.132248
H 0.817640 0.778690 0.950010 0.126189
H 0.039390 0.583020 0.078240 0.130271
H 0.011580 0.667100 0.050500 0.129944
H 0.996260 0.541510 0.094210 0.127750
H 0.007590 0.514430 0.070020 0.128172
H 0.920830 0.583020 0.084330 0.128947
H 0.932030 0.556060 0.060390 0.129262
H 0.908930 0.639100 0.977580 0.129816
H 0.924510 0.591650 0.993350 0.130333
H 0.992700 0.725920 0.939410 0.122767
H 0.035480 0.703100 0.945170 0.121991
H 0.020720 0.691050 0.881860 0.134131
H 0.062890 0.668690 0.887400 0.137129
Cr 0.135770 0.305770 0.966160 -2.344473
Cr 0.943440 0.446520 0.890370 -2.294553
C 0.827600 0.680560 0.789080 -0.052212
C 0.888980 0.523040 0.850450 -0.051813
C 0.873970 0.544610 0.835450 -0.052721
C 0.933210 0.399460 0.844790 -0.050705
C 0.937730 0.419370 0.867800 0.276117
C 0.939110 0.418960 0.843590 0.010652
C 0.945420 0.438300 0.819320 -0.053596
C 0.064060 0.292740 0.041630 -0.049820
C 0.090640 0.287420 0.996950 0.282204
C 0.067820 0.285060 0.022050 0.011637
C 0.048550 0.276780 0.026100 -0.050726
C 0.087030 0.386110 0.982010 -0.052789
C 0.105960 0.361960 0.950390 0.273793
C 0.091300 0.386400 0.957600 0.010801
C 0.073190 0.409150 0.988480 -0.050660
C 0.046900 0.457700 0.978010 0.281195
C 0.063250 0.433280 0.970730 0.010836
C 0.081490 0.410570 0.939840 -0.055071
C 0.067780 0.433530 0.946260 -0.049923
C 0.965750 0.477880 0.927360 -0.052729
C 0.974800 0.487240 0.936370 -0.050328
C 0.927760 0.350500 0.008060 -0.050577
C 0.908340 0.393000 0.976960 0.278916
C 0.910280 0.376310 0.003280 0.010752
C 0.931110 0.335770 0.032500 -0.056395
C 0.172040 0.328620 0.917430 0.280003
C 0.917010 0.346610 0.052530 0.009867
C 0.895620 0.386690 0.023620 -0.053488
C 0.898890 0.372060 0.047870 -0.045860
O 0.824410 0.638760 0.788970 0.274773
O 0.916730 0.477350 0.881170 0.281284
O 0.841990 0.586300 0.806480 0.274958
O 0.943630 0.436800 0.866300 0.276693
O 0.889180 0.402270 0.930310 0.278085
O 0.106590 0.296480 0.993740 0.289178
O 0.157150 0.270540 0.969020 0.288359
O 0.116040 0.340630 0.966100 0.284124
O 0.107950 0.363530 0.928510 0.270629
O 0.042030 0.456640 0.000730 0.288867
O 0.037820 0.478570 0.961330 0.286847
O 0.946210 0.458600 0.910740 0.277382
O 0.991990 0.503960 0.956540 0.284794
O 0.918880 0.382380 0.959840 0.278190
O 0.972540 0.417360 0.896680 0.281567
O 0.165900 0.314920 0.941450 0.285371
O 0.092630 0.345860 0.910930 0.283538
H 0.842710 0.672530 0.773780 0.130554
H 0.909630 0.514850 0.840830 0.129493
H 0.883510 0.552510 0.814710 0.129317
H 0.928260 0.384230 0.863050 0.132231
H 0.950010 0.453660 0.817640 0.126167
H 0.078240 0.299360 0.039390 0.130240
H 0.050500 0.270820 0.011580 0.129928
H 0.094210 0.368010 0.996260 0.127756
H 0.070020 0.407970 0.007590 0.128178
H 0.084330 0.411810 0.920830 0.128943
H 0.060390 0.451510 0.932030 0.129245
H 0.977580 0.474390 0.908930 0.129788
H 0.993350 0.490490 0.924510 0.130325
H 0.939410 0.341980 0.992700 0.122764
H 0.945170 0.316240 0.035480 0.121961
H 0.881860 0.406370 0.020720 0.134123
H 0.887400 0.381020 0.062890 0.137133
Cr 0.305770 0.135770 0.592300 -2.344605
Cr 0.446520 0.943440 0.719660 -2.294690
C 0.680560 0.827600 0.702770 -0.052250
C 0.523040 0.888980 0.737530 -0.051921
C 0.544610 0.873970 0.745970 -0.052624
C 0.399460 0.933210 0.822540 -0.050607
C 0.419370 0.937730 0.775110 0.275908
C 0.418960 0.939110 0.798330 0.010616
C 0.438300 0.945420 0.796960 -0.053594
C 0.292740 0.064060 0.601570 -0.049878
C 0.287420 0.090640 0.624990 0.282228
C 0.285060 0.067820 0.625060 0.011653
C 0.276780 0.048550 0.648570 -0.050717
C 0.386110 0.087030 0.544840 -0.052626
C 0.361960 0.105960 0.581690 0.273816
C 0.386400 0.091300 0.564700 0.010775
C 0.409150 0.073190 0.529170 -0.050889
C 0.457700 0.046900 0.517390 0.281248
C 0.433280 0.063250 0.532740 0.010879
C 0.410570 0.081490 0.568100 -0.055072
C 0.433530 0.067780 0.552430 -0.050011
C 0.477880 0.965750 0.629010 -0.052708
C 0.487240 0.974800 0.601590 -0.050341
C 0.350500 0.927760 0.713680 -0.050452
C 0.393000 0.908340 0.721700 0.278890
C 0.376310 0.910280 0.710130 0.010734
C 0.335770 0.931110 0.700620 -0.056449
C 0.328620 0.172040 0.581920 0.280065
C 0.346610 0.917010 0.683850 0.009876
C 0.386690 0.895620 0.694080 -0.053407
C 0.372060 0.898890 0.681190 -0.045908
O 0.638760 0.824410 0.747860 0.274760
O 0.477350 0.916730 0.724750 0.281249
O 0.586300 0.841990 0.765230 0.274994
O 0.436800 0.943630 0.753270 0.276563
O 0.402270 0.889180 0.778240 0.278186
O 0.296480 0.106590 0.603190 0.289211
O 0.270540 0.157150 0.603300 0.288364
O 0.340630 0.116040 0.577230 0.284156
O 0.363530 0.107950 0.600000 0.270489
O 0.456640 0.042030 0.500600 0.288871
O 0.478570 0.037820 0.522290 0.286738
O 0.458600 0.946210 0.684440 0.277310
O 0.503960 0.991990 0.547510 0.284751
O 0.382380 0.918880 0.738890 0.277845
O 0.417360 0.972540 0.713430 0.281715
O 0.314920 0.165900 0.577730 0.285437
O 0.345860 0.092630 0.650570 0.283696
H 0.672530 0.842710 0.710980 0.130574
H 0.514850 0.909630 0.734680 0.129514
H 0.552510 0.883510 0.749270 0.129308
H 0.384230 0.928260 0.824460 0.132243
H 0.453660 0.950010 0.778690 0.126154
H 0.299360 0.078240 0.583020 0.130267
H 0.270820 0.050500 0.667100 0.129948
H 0.368010 0.094210 0.541510 0.127739
H 0.407970 0.070020 0.514430 0.128228
H 0.411810 0.084330 0.583020 0.128969
H 0.451510 0.060390 0.556060 0.129261
H 0.474390 0.977580 0.639100 0.129802
H 0.490490 0.993350 0.591650 0.130323
H 0.341980 0.939410 0.725920 0.122771
H 0.316240 0.945170 0.703100 0.121985
H 0.406370 0.881860 0.691050 0.134139
H 0.381020 0.887400 0.668690 0.137098
Cr 0.592300 0.966160 0.305770 -2.344295
Cr 0.719660 0.890370 0.446520 -2.294894
C 0.702770 0.789080 0.680560 -0.052221
C 0.737530 0.850450 0.523040 -0.051740
C 0.745970 0.835450 0.544610 -0.052754
C 0.822540 0.844790 0.399460 -0.050662
C 0.775110 0.867800 0.419370 0.276002
C 0.798330 0.843590 0.418960 0.010644
C 0.796960 0.819320 0.438300 -0.053587
C 0.601570 0.041630 0.292740 -0.049846
C 0.624990 0.996950 0.287420 0.282121
C 0.625060 0.022050 0.285060 0.011645
C 0.648570 0.026100 0.276780 -0.050701
C 0.544840 0.982010 0.386110 -0.052716
C 0.581690 0.950390 0.361960 0.273724
C 0.564700 0.957600 0.386400 0.010793
C 0.529170 0.988480 0.409150 -0.050712
C 0.517390 0.978010 0.457700 0.281177
C 0.532740 0.970730 0.433280 0.010846
C 0.568100 0.939840 0.410570 -0.055097
C 0.552430 0.946260 0.433530 -0.049971
C 0.629010 0.927360 0.477880 -0.052675
C 0.601590 0.936370 0.487240 -0.050362
C 0.713680 0.008060 0.350500 -0.050628
C 0.721700 0.976960 0.393000 0.278946
C 0.710130 0.003280 0.376310 0.010764
C 0.700620 0.032500 0.335770 -0.056316
C 0.581920 0.917430 0.328620 0.280080
C 0.683850 0.052530 0.346610 0.009843
C 0.694080 0.023620 0.386690 -0.053496
C 0.681190 0.047870 0.372060 -0.045829
O 0.747860 0.788970 0.638760 0.274706
O 0.724750 0.881170 0.477350 0.281268
O 0.765230 0.806480 0.586300 0.274907
O 0.753270 0.866300 0.436800 0.276685
O 0.778240 0.930310 0.402270 0.278356
O 0.603190 0.993740 0.296480 0.289135
O 0.603300 0.969020 0.270540 0.288381
O 0.577230 0.966100 0.340630 0.284077
O 0.600000 0.928510 0.363530 0.270442
O 0.500600 0.000730 0.456640 0.288857
O 0.522290 0.961330 0.478570 0.286811
O 0.684440 0.910740 0.458600 0.277420
O 0.547510 0.956540 0.503960 0.284711
O 0.738890 0.959840 0.382380 0.278163
O 0.713430 0.896680 0.417360 0.281950
O 0.577730 0.941450 0.314920 0.285286
O 0.650570 0.910930 0.345860 0.283600
H 0.710980 0.773780 0.672530 0.130545
H 0.734680 0.840830 0.514850 0.129496
H 0.749270 0.814710 0.552510 0.129315
H 0.824460 0.863050 0.384230 0.132245
H 0.778690 0.817640 0.453660 0.126176
H 0.583020 0.039390 0.299360 0.130248
H 0.667100 0.011580 0.270820 0.129934
H 0.541510 0.996260 0.368010 0.127758
H 0.514430 0.007590 0.407970 0.128188
H 0.583020 0.920830 0.411810 0.128943
H 0.556060 0.932030 0.451510 0.129247
H 0.639100 0.908930 0.474390 0.129805
H 0.591650 0.924510 0.490490 0.130323
H 0.725920 0.992700 0.341980 0.122795
H 0.703100 0.035480 0.316240 0.121952
H 0.691050 0.020720 0.406370 0.134131
H 0.668690 0.062890 0.381020 0.137144
Cr 0.114230 0.283840 0.944230 -2.344473
Cr 0.306560 0.359630 0.803480 -2.294553
C 0.422400 0.460920 0.569440 -0.052212
C 0.361020 0.399550 0.726960 -0.051813
C 0.376030 0.414550 0.705390 -0.052721
C 0.316790 0.405210 0.850540 -0.050705
C 0.312270 0.382200 0.830630 0.276117
C 0.310890 0.406410 0.831040 0.010652
C 0.304580 0.430680 0.811700 -0.053596
C 0.185940 0.208370 0.957260 -0.049820
C 0.159360 0.253050 0.962580 0.282204
C 0.182180 0.227950 0.964940 0.011637
C 0.201450 0.223900 0.973220 -0.050726
C 0.162970 0.267990 0.863890 -0.052789
C 0.144040 0.299610 0.888040 0.273793
C 0.158700 0.292400 0.863600 0.010801
C 0.176810 0.261520 0.840850 -0.050660
C 0.203100 0.271990 0.792300 0.281195
C 0.186750 0.279270 0.816720 0.010836
C 0.168510 0.310160 0.839430 -0.055071
C 0.182220 0.303740 0.816470 -0.049923
C 0.284250 0.322640 0.772120 -0.052729
C 0.275200 0.313630 0.762760 -0.050328
C 0.322240 0.241940 0.899500 -0.050577
C 0.341660 0.273040 0.857000 0.278916
C 0.339720 0.246720 0.873690 0.010752
C 0.318890 0.217500 0.914230 -0.056395
C 0.077960 0.332570 0.921380 0.280003
C 0.332990 0.197470 0.903390 0.009867
C 0.354380 0.226380 0.863310 -0.053488
C 0.351110 0.202130 0.877940 -0.045860
O 0.425590 0.461030 0.611240 0.274773
O 0.333270 0.368830 0.772650 0.281284
O 0.408010 0.443520 0.663700 0.274958
O 0.306370 0.383700 0.813200 0.276693
O 0.360820 0.319690 0.847730 0.278085
O 0.143410 0.256260 0.953520 0.289178
O 0.092850 0.280980 0.979460 0.288359
O 0.133960 0.283900 0.909370 0.284124
O 0.142050 0.321490 0.886470 0.270629
O 0.207970 0.249270 0.793360 0.288867
O 0.212180 0.288670 0.771430 0.286847
O 0.303790 0.339260 0.791400 0.277382
O 0.258010 0.293460 0.746040 0.284794
O 0.331120 0.290160 0.867620 0.278190
O 0.277460 0.353320 0.832640 0.281567
O 0.084100 0.308550 0.935080 0.285371
O 0.157370 0.339070 0.904140 0.283538
H 0.407290 0.476220 0.577470 0.130554
H 0.340370 0.409170 0.735150 0.129493
H 0.366490 0.435290 0.697490 0.129317
H 0.321740 0.386950 0.865770 0.132231
H 0.299990 0.432360 0.796340 0.126167
H 0.171760 0.210610 0.950640 0.130240
H 0.199500 0.238420 0.979180 0.129928
H 0.155790 0.253740 0.881990 0.127756
H 0.179980 0.242410 0.842030 0.128178
H 0.165670 0.329170 0.838190 0.128943
H 0.189610 0.317970 0.798490 0.129245
H 0.272420 0.341070 0.775610 0.129788
H 0.256650 0.325490 0.759510 0.130325
H 0.310590 0.257300 0.908020 0.122764
H 0.304830 0.214520 0.933760 0.121961
H 0.368140 0.229280 0.843630 0.134123
H 0.362600 0.187110 0.868980 0.137133
Cr 0.283840 0.114230 0.657700 -2.344751
Cr 0.359630 0.306560 0.530340 -2.295118
C 0.460920 0.422400 0.547230 -0.052237
C 0.399550 0.361020 0.512470 -0.051814
C 0.414550 0.376030 0.504030 -0.052721
C 0.405210 0.316790 0.427460 -0.050656
C 0.382200 0.312270 0.474890 0.275960
C 0.406410 0.310890 0.451670 0.010640
C 0.430680 0.304580 0.453040 -0.053568
C 0.208370 0.185940 0.648430 -0.049861
C 0.253050 0.159360 0.625010 0.282189
C 0.227950 0.182180 0.624940 0.011640
C 0.223900 0.201450 0.601430 -0.050704
C 0.267990 0.162970 0.705160 -0.052790
C 0.299610 0.144040 0.668310 0.273881
C 0.292400 0.158700 0.685300 0.010798
C 0.261520 0.176810 0.720830 -0.050686
C 0.271990 0.203100 0.732610 0.281248
C 0.279270 0.186750 0.717260 0.010842
C 0.310160 0.168510 0.681900 -0.055078
C 0.303740 0.182220 0.697570 -0.049921
C 0.322640 0.284250 0.620990 -0.052671
C 0.313630 0.275200 0.648410 -0.050358
C 0.241940 0.322240 0.536320 -0.050410
C 0.273040 0.341660 0.528300 0.278804
C 0.246720 0.339720 0.539870 0.010733
C 0.217500 0.318890 0.549380 -0.056533
C 0.332570 0.077960 0.668080 0.280078
C 0.197470 0.332990 0.566150 0.009890
C 0.226380 0.354380 0.555920 -0.053367
C 0.202130 0.351110 0.568810 -0.045907
O 0.461030 0.425590 0.502140 0.274721
O 0.368830 0.333270 0.525250 0.281521
O 0.443520 0.408010 0.484770 0.274918
O 0.383700 0.306370 0.496730 0.276705
O 0.319690 0.360820 0.471760 0.278074
O 0.256260 0.143410 0.646810 0.289240
O 0.280980 0.092850 0.646700 0.288226
O 0.283900 0.133960 0.672770 0.284189
O 0.321490 0.142050 0.650000 0.270462
O 0.249270 0.207970 0.749400 0.288879
O 0.288670 0.212180 0.727710 0.286630
O 0.339260 0.303790 0.565560 0.277457
O 0.293460 0.258010 0.702490 0.284803
O 0.290160 0.331120 0.511110 0.278109
O 0.353320 0.277460 0.536570 0.281518
O 0.308550 0.084100 0.672270 0.285414
O 0.339070 0.157370 0.599430 0.283649
H 0.476220 0.407290 0.539020 0.130562
H 0.409170 0.340370 0.515320 0.129519
H 0.435290 0.366490 0.500730 0.129318
H 0.386950 0.321740 0.425540 0.132248
H 0.432360 0.299990 0.471310 0.126189
H 0.210610 0.171760 0.666980 0.130271
H 0.238420 0.199500 0.582900 0.129944
H 0.253740 0.155790 0.708490 0.127750
H 0.242410 0.179980 0.735570 0.128172
H 0.329170 0.165670 0.666980 0.128947
H 0.317970 0.189610 0.693940 0.129262
H 0.341070 0.272420 0.610900 0.129816
H 0.325490 0.256650 0.658350 0.130333
H 0.257300 0.310590 0.524080 0.122767
H 0.214520 0.304830 0.546900 0.121991
H 0.229280 0.368140 0.558950 0.134131
H 0.187110 0.362600 0.581310 0.137129
Cr 0.657700 0.944230 0.283840 -2.344295
Cr 0.530340 0.803480 0.359630 -2.294894
C 0.547230 0.569440 0.460920 -0.052221
C 0.512470 0.726960 0.399550 -0.051740
C 0.504030 0.705390 0.414550 -0.052754
C 0.427460 0.850540 0.405210 -0.050662
C 0.474890 0.830630 0.382200 0.276002
C 0.451670 0.831040 0.406410 0.010644
C 0.453040 0.811700 0.430680 -0.053587
C 0.648430 0.957260 0.208370 -0.049846
C 0.625010 0.962580 0.253050 0.282121
C 0.624940 0.964940 0.227950 0.011645
C 0.601430 0.973220 0.223900 -0.050701
C 0.705160 0.863890 0.267990 -0.052716
C 0.668310 0.888040 0.299610 0.273724
C 0.685300 0.863600 0.292400 0.010793
C 0.720830 0.840850 0.261520 -0.050712
C 0.732610 0.792300 0.271990 0.281177
C 0.717260 0.816720 0.279270 0.010846
C 0.681900 0.839430 0.310160 -0.055097
C 0.697570 0.816470 0.303740 -0.049971
C 0.620990 0.772120 0.322640 -0.052675
C 0.648410 0.762760 0.313630 -0.050362
C 0.536320 0.899500 0.241940 -0.050628
C 0.528300 0.857000 0.273040 0.278946
C 0.539870 0.873690 0.246720 0.010764
C 0.549380 0.914230 0.217500 -0.056316
C 0.668080 0.921380 0.332570 0.280080
C 0.566150 0.903390 0.197470 0.009843
C 0.555920 0.863310 0.226380 -0.053496
C 0.568810 0.877940 0.202130 -0.045829
O 0.502140 0.611240 0.461030 0.274706
O 0.525250 0.772650 0.368830 0.281268
O 0.484770 0.663700 0.443520 0.274907
O 0.496730 0.813200 0.383700 0.276685
O 0.471760 0.847730 0.319690 0.278356
O 0.646810 0.953520 0.256260 0.289135
O 0.646700 0.979460 0.280980 0.288381
O 0.672770 0.909370 0.283900 0.284077
O 0.650000 0.886470 0.321490 0.270442
O 0.749400 0.793360 0.249270 0.288857
O 0.727710 0.771430 0.288670 0.286811
O 0.565560 0.791400 0.339260 0.277420
O 0.702490 0.746040 0.293460 0.284711
O 0.511110 0.867620 0.290160 0.278163
O 0.536570 0.832640 0.353320 0.281950
O 0.672270 0.935080 0.308550 0.285286
O 0.599430 0.904140 0.339070 0.283600
H 0.539020 0.577470 0.476220 0.130545
H 0.515320 0.735150 0.409170 0.129496
H 0.500730 0.697490 0.435290 0.129315
H 0.425540 0.865770 0.386950 0.132245
H 0.471310 0.796340 0.432360 0.126176
H 0.666980 0.950640 0.210610 0.130248
H 0.582900 0.979180 0.238420 0.129934
H 0.708490 0.881990 0.253740 0.127758
H 0.735570 0.842030 0.242410 0.128188
H 0.666980 0.838190 0.329170 0.128943
H 0.693940 0.798490 0.317970 0.129247
H 0.610900 0.775610 0.341070 0.129805
H 0.658350 0.759510 0.325490 0.130323
H 0.524080 0.908020 0.257300 0.122795
H 0.546900 0.933760 0.214520 0.121952
H 0.558950 0.843630 0.229280 0.134131
H 0.581310 0.868980 0.187110 0.137144
Cr 0.944230 0.657700 0.114230 -2.344605
Cr 0.803480 0.530340 0.306560 -2.294690
C 0.569440 0.547230 0.422400 -0.052250
C 0.726960 0.512470 0.361020 -0.051921
C 0.705390 0.504030 0.376030 -0.052624
C 0.850540 0.427460 0.316790 -0.050607
C 0.830630 0.474890 0.312270 0.275908
C 0.831040 0.451670 0.310890 0.010616
C 0.811700 0.453040 0.304580 -0.053594
C 0.957260 0.648430 0.185940 -0.049878
C 0.962580 0.625010 0.159360 0.282228
C 0.964940 0.624940 0.182180 0.011653
C 0.973220 0.601430 0.201450 -0.050717
C 0.863890 0.705160 0.162970 -0.052626
C 0.888040 0.668310 0.144040 0.273816
C 0.863600 0.685300 0.158700 0.010775
C 0.840850 0.720830 0.176810 -0.050889
C 0.792300 0.732610 0.203100 0.281248
C 0.816720 0.717260 0.186750 0.010879
C 0.839430 0.681900 0.168510 -0.055072
C 0.816470 0.697570 0.182220 -0.050011
C 0.772120 0.620990 0.284250 -0.052708
C 0.762760 0.648410 0.275200 -0.050341
C 0.899500 0.536320 0.322240 -0.050452
C 0.857000 0.528300 0.341660 0.278890
C 0.873690 0.539870 0.339720 0.010734
C 0.914230 0.549380 0.318890 -0.056449
C 0.921380 0.668080 0.077960 0.280065
C 0.903390 0.566150 0.332990 0.009876
C 0.863310 0.555920 0.354380 -0.053407
C 0.877940 0.568810 0.351110 -0.045908
O 0.611240 0.502140 0.425590 0.274760
O 0.772650 0.525250 0.333270 0.281249
O 0.663700 0.484770 0.408010 0.274994
O 0.813200 0.496730 0.306370 0.276563
O 0.847730 0.471760 0.360820 0.278186
O 0.953520 0.646810 0.143410 0.289211
O 0.979460 0.646700 0.092850 0.288364
O 0.909370 0.672770 0.133960 0.284156
O 0.886470 0.650000 0.142050 0.270489
O 0.793360 0.749400 0.207970 0.288871
O 0.771430 0.727710 0.212180 0.286738
O 0.791400 0.565560 0.303790 0.277310
O 0.746040 0.702490 0.258010 0.284751
O 0.867620 0.511110 0.331120 0.277845
O 0.832640 0.536570 0.277460 0.281715
O 0.935080 0.672270 0.084100 0.285437
O 0.904140 0.599430 0.157370 0.283696
H 0.577470 0.539020 0.407290 0.130574
H 0.735150 0.515320 0.340370 0.129514
H 0.697490 0.500730 0.366490 0.129308
H 0.865770 0.425540 0.321740 0.132243
H 0.796340 0.471310 0.299990 0.126154
H 0.950640 0.666980 0.171760 0.130267
H 0.979180 0.582900 0.199500 0.129948
H 0.881990 0.708490 0.155790 0.127739
H 0.842030 0.735570 0.179980 0.128228
H 0.838190 0.666980 0.165670 0.128969
H 0.798490 0.693940 0.189610 0.129261
H 0.775610 0.610900 0.272420 0.129802
H 0.759510 0.658350 0.256650 0.130323
H 0.908020 0.524080 0.310590 0.122771
H 0.933760 0.546900 0.304830 0.121985
H 0.843630 0.558950 0.368140 0.134139
H 0.868980 0.581310 0.362600 0.137098
Cr 0.657700 0.114230 0.944230 -2.344605
Cr 0.530340 0.306560 0.803480 -2.294690
C 0.547230 0.422400 0.569440 -0.052250
C 0.512470 0.361020 0.726960 -0.051921
C 0.504030 0.376030 0.705390 -0.052624
C 0.427460 0.316790 0.850540 -0.050607
C 0.474890 0.312270 0.830630 0.275908
C 0.451670 0.310890 0.831040 0.010616
C 0.453040 0.304580 0.811700 -0.053594
C 0.648430 0.185940 0.957260 -0.049878
C 0.625010 0.159360 0.962580 0.282228
C 0.624940 0.182180 0.964940 0.011653
C 0.601430 0.201450 0.973220 -0.050717
C 0.705160 0.162970 0.863890 -0.052626
C 0.668310 0.144040 0.888040 0.273816
C 0.685300 0.158700 0.863600 0.010775
C 0.720830 0.176810 0.840850 -0.050889
C 0.732610 0.203100 0.792300 0.281248
C 0.717260 0.186750 0.816720 0.010879
C 0.681900 0.168510 0.839430 -0.055072
C 0.697570 0.182220 0.816470 -0.050011
C 0.620990 0.284250 0.772120 -0.052708
C 0.648410 0.275200 0.762760 -0.050341
C 0.536320 0.322240 0.899500 -0.050452
C 0.528300 0.341660 0.857000 0.278890
C 0.539870 0.339720 0.873690 0.010734
C 0.549380 0.318890 0.914230 -0.056449
C 0.668080 0.077960 0.921380 0.280065
C 0.566150 0.332990 0.903390 0.009876
C 0.555920 0.354380 0.863310 -0.053407
C 0.568810 0.351110 0.877940 -0.045908
O 0.502140 0.425590 0.611240 0.274760
O 0.525250 0.333270 0.772650 0.281249
O 0.484770 0.408010 0.663700 0.274994
O 0.496730 0.306370 0.813200 0.276563
O 0.471760 0.360820 0.847730 0.278186
O 0.646810 0.143410 0.953520 0.289211
O 0.646700 0.092850 0.979460 0.288364
O 0.672770 0.133960 0.909370 0.284156
O 0.650000 0.142050 0.886470 0.270489
O 0.749400 0.207970 0.793360 0.288871
O 0.727710 0.212180 0.771430 0.286738
O 0.565560 0.303790 0.791400 0.277310
O 0.702490 0.258010 0.746040 0.284751
O 0.511110 0.331120 0.867620 0.277845
O 0.536570 0.277460 0.832640 0.281715
O 0.672270 0.084100 0.935080 0.285437
O 0.599430 0.157370 0.904140 0.283696
H 0.539020 0.407290 0.577470 0.130574
H 0.515320 0.340370 0.735150 0.129514
H 0.500730 0.366490 0.697490 0.129308
H 0.425540 0.321740 0.865770 0.132243
H 0.471310 0.299990 0.796340 0.126154
H 0.666980 0.171760 0.950640 0.130267
H 0.582900 0.199500 0.979180 0.129948
H 0.708490 0.155790 0.881990 0.127739
H 0.735570 0.179980 0.842030 0.128228
H 0.666980 0.165670 0.838190 0.128969
H 0.693940 0.189610 0.798490 0.129261
H 0.610900 0.272420 0.775610 0.129802
H 0.658350 0.256650 0.759510 0.130323
H 0.524080 0.310590 0.908020 0.122771
H 0.546900 0.304830 0.933760 0.121985
H 0.558950 0.368140 0.843630 0.134139
H 0.581310 0.362600 0.868980 0.137098
Cr 0.944230 0.283840 0.657700 -2.344295
Cr 0.803480 0.359630 0.530340 -2.294894
C 0.569440 0.460920 0.547230 -0.052221
C 0.726960 0.399550 0.512470 -0.051740
C 0.705390 0.414550 0.504030 -0.052754
C 0.850540 0.405210 0.427460 -0.050662
C 0.830630 0.382200 0.474890 0.276002
C 0.831040 0.406410 0.451670 0.010644
C 0.811700 0.430680 0.453040 -0.053587
C 0.957260 0.208370 0.648430 -0.049846
C 0.962580 0.253050 0.625010 0.282121
C 0.964940 0.227950 0.624940 0.011645
C 0.973220 0.223900 0.601430 -0.050701
C 0.863890 0.267990 0.705160 -0.052716
C 0.888040 0.299610 0.668310 0.273724
C 0.863600 0.292400 0.685300 0.010793
C 0.840850 0.261520 0.720830 -0.050712
C 0.792300 0.271990 0.732610 0.281177
C 0.816720 0.279270 0.717260 0.010846
C 0.839430 0.310160 0.681900 -0.055097
C 0.816470 0.303740 0.697570 -0.049971
C 0.772120 0.322640 0.620990 -0.052675
C 0.762760 0.313630 0.648410 -0.050362
C 0.899500 0.241940 0.536320 -0.050628
C 0.857000 0.273040 0.528300 0.278946
C 0.873690 0.246720 0.539870 0.010764
C 0.914230 0.217500 0.549380 -0.056316
C 0.921380 0.332570 0.668080 0.280080
C 0.903390 0.197470 0.566150 0.009843
C 0.863310 0.226380 0.555920 -0.053496
C 0.877940 0.202130 0.568810 -0.045829
O 0.611240 0.461030 0.502140 0.274706
O 0.772650 0.368830 0.525250 0.281268
O 0.663700 0.443520 0.484770 0.274907
O 0.813200 0.383700 0.496730 0.276685
O 0.847730 0.319690 0.471760 0.278356
O 0.953520 0.256260 0.646810 0.289135
O 0.979460 0.280980 0.646700 0.288381
O 0.909370 0.283900 0.672770 0.284077
O 0.886470 0.321490 0.650000 0.270442
O 0.793360 0.249270 0.749400 0.288857
O 0.771430 0.288670 0.727710 0.286811
O 0.791400 0.339260 0.565560 0.277420
O 0.746040 0.293460 0.702490 0.284711
O 0.867620 0.290160 0.511110 0.278163
O 0.832640 0.353320 0.536570 0.281950
O 0.935080 0.308550 0.672270 0.285286
O 0.904140 0.339070 0.599430 0.283600
H 0.577470 0.476220 0.539020 0.130545
H 0.735150 0.409170 0.515320 0.129496
H 0.697490 0.435290 0.500730 0.129315
H 0.865770 0.386950 0.425540 0.132245
H 0.796340 0.432360 0.471310 0.126176
H 0.950640 0.210610 0.666980 0.130248
H 0.979180 0.238420 0.582900 0.129934
H 0.881990 0.253740 0.708490 0.127758
H 0.842030 0.242410 0.735570 0.128188
H 0.838190 0.329170 0.666980 0.128943
H 0.798490 0.317970 0.693940 0.129247
H 0.775610 0.341070 0.610900 0.129805
H 0.759510 0.325490 0.658350 0.130323
H 0.908020 0.257300 0.524080 0.122795
H 0.933760 0.214520 0.546900 0.121952
H 0.843630 0.229280 0.558950 0.134131
H 0.868980 0.187110 0.581310 0.137144
Cr 0.114230 0.657700 0.283840 -2.344751
Cr 0.306560 0.530340 0.359630 -2.295118
C 0.422400 0.547230 0.460920 -0.052237
C 0.361020 0.512470 0.399550 -0.051814
C 0.376030 0.504030 0.414550 -0.052721
C 0.316790 0.427460 0.405210 -0.050656
C 0.312270 0.474890 0.382200 0.275960
C 0.310890 0.451670 0.406410 0.010640
C 0.304580 0.453040 0.430680 -0.053568
C 0.185940 0.648430 0.208370 -0.049861
C 0.159360 0.625010 0.253050 0.282189
C 0.182180 0.624940 0.227950 0.011640
C 0.201450 0.601430 0.223900 -0.050704
C 0.162970 0.705160 0.267990 -0.052790
C 0.144040 0.668310 0.299610 0.273881
C 0.158700 0.685300 0.292400 0.010798
C 0.176810 0.720830 0.261520 -0.050686
C 0.203100 0.732610 0.271990 0.281248
C 0.186750 0.717260 0.279270 0.010842
C 0.168510 0.681900 0.310160 -0.055078
C 0.182220 0.697570 0.303740 -0.049921
C 0.284250 0.620990 0.322640 -0.052671
C 0.275200 0.648410 0.313630 -0.050358
C 0.322240 0.536320 0.241940 -0.050410
C 0.341660 0.528300 0.273040 0.278804
C 0.339720 0.539870 0.246720 0.010733
C 0.318890 0.549380 0.217500 -0.056533
C 0.077960 0.668080 0.332570 0.280078
C 0.332990 0.566150 0.197470 0.009890
C 0.354380 0.555920 0.226380 -0.053367
C 0.351110 0.568810 0.202130 -0.045907
O 0.425590 0.502140 0.461030 0.274721
O 0.333270 0.525250 0.368830 0.281521
O 0.408010 0.484770 0.443520 0.274918
O 0.306370 0.496730 0.383700 0.276705
O 0.360820 0.471760 0.319690 0.278074
O 0.143410 0.646810 0.256260 0.289240
O 0.092850 0.646700 0.280980 0.288226
O 0.133960 0.672770 0.283900 0.284189
O 0.142050 0.650000 0.321490 0.270462
O 0.207970 0.749400 0.249270 0.288879
O 0.212180 0.727710 0.288670 0.286630
O 0.303790 0.565560 0.339260 0.277457
O 0.258010 0.702490 0.293460 0.284803
O 0.331120 0.511110 0.290160 0.278109
O 0.277460 0.536570 0.353320 0.281518
O 0.084100 0.672270 0.308550 0.285414
O 0.157370 0.599430 0.339070 0.283649
H 0.407290 0.539020 0.476220 0.130562
H 0.340370 0.515320 0.409170 0.129519
H 0.366490 0.500730 0.435290 0.129318
H 0.321740 0.425540 0.386950 0.132248
H 0.299990 0.471310 0.432360 0.126189
H 0.171760 0.666980 0.210610 0.130271
H 0.199500 0.582900 0.238420 0.129944
H 0.155790 0.708490 0.253740 0.127750
H 0.179980 0.735570 0.242410 0.128172
H 0.165670 0.666980 0.329170 0.128947
H 0.189610 0.693940 0.317970 0.129262
H 0.272420 0.610900 0.341070 0.129816
H 0.256650 0.658350 0.325490 0.130333
H 0.310590 0.524080 0.257300 0.122767
H 0.304830 0.546900 0.214520 0.121991
H 0.368140 0.558950 0.229280 0.134131
H 0.362600 0.581310 0.187110 0.137129
Cr 0.283840 0.944230 0.114230 -2.344473
Cr 0.359630 0.803480 0.306560 -2.294553
C 0.460920 0.569440 0.422400 -0.052212
C 0.399550 0.726960 0.361020 -0.051813
C 0.414550 0.705390 0.376030 -0.052721
C 0.405210 0.850540 0.316790 -0.050705
C 0.382200 0.830630 0.312270 0.276117
C 0.406410 0.831040 0.310890 0.010652
C 0.430680 0.811700 0.304580 -0.053596
C 0.208370 0.957260 0.185940 -0.049820
C 0.253050 0.962580 0.159360 0.282204
C 0.227950 0.964940 0.182180 0.011637
C 0.223900 0.973220 0.201450 -0.050726
C 0.267990 0.863890 0.162970 -0.052789
C 0.299610 0.888040 0.144040 0.273793
C 0.292400 0.863600 0.158700 0.010801
C 0.261520 0.840850 0.176810 -0.050660
C 0.271990 0.792300 0.203100 0.281195
C 0.279270 0.816720 0.186750 0.010836
C 0.310160 0.839430 0.168510 -0.055071
C 0.303740 0.816470 0.182220 -0.049923
C 0.322640 0.772120 0.284250 -0.052729
C 0.313630 0.762760 0.275200 -0.050328
C 0.241940 0.899500 0.322240 -0.050577
C 0.273040 0.857000 0.341660 0.278916
C 0.246720 0.873690 0.339720 0.010752
C 0.217500 0.914230 0.318890 -0.056395
C 0.332570 0.921380 0.077960 0.280003
C 0.197470 0.903390 0.332990 0.009867
C 0.226380 0.863310 0.354380 -0.053488
C 0.202130 0.877940 0.351110 -0.045860
O 0.461030 0.611240 0.425590 0.274773
O 0.368830 0.772650 0.333270 0.281284
O 0.443520 0.663700 0.408010 0.274958
O 0.383700 0.813200 0.306370 0.276693
O 0.319690 0.847730 0.360820 0.278085
O 0.256260 0.953520 0.143410 0.289178
O 0.280980 0.979460 0.092850 0.288359
O 0.283900 0.909370 0.133960 0.284124
O 0.321490 0.886470 0.142050 0.270629
O 0.249270 0.793360 0.207970 0.288867
O 0.288670 0.771430 0.212180 0.286847
O 0.339260 0.791400 0.303790 0.277382
O 0.293460 0.746040 0.258010 0.284794
O 0.290160 0.867620 0.331120 0.278190
O 0.353320 0.832640 0.277460 0.281567
O 0.308550 0.935080 0.084100 0.285371
O 0.339070 0.904140 0.157370 0.283538
H 0.476220 0.577470 0.407290 0.130554
H 0.409170 0.735150 0.340370 0.129493
H 0.435290 0.697490 0.366490 0.129317
H 0.386950 0.865770 0.321740 0.132231
H 0.432360 0.796340 0.299990 0.126167
H 0.210610 0.950640 0.171760 0.130240
H 0.238420 0.979180 0.199500 0.129928
H 0.253740 0.881990 0.155790 0.127756
H 0.242410 0.842030 0.179980 0.128178
H 0.329170 0.838190 0.165670 0.128943
H 0.317970 0.798490 0.189610 0.129245
H 0.341070 0.775610 0.272420 0.129788
H 0.325490 0.759510 0.256650 0.130325
H 0.257300 0.908020 0.310590 0.122764
H 0.214520 0.933760 0.304830 0.121961
H 0.229280 0.843630 0.368140 0.134123
H 0.187110 0.868980 0.362600 0.137133
Cr 0.283840 0.657700 0.944230 -2.344295
Cr 0.359630 0.530340 0.803480 -2.294894
C 0.460920 0.547230 0.569440 -0.052221
C 0.399550 0.512470 0.726960 -0.051740
C 0.414550 0.504030 0.705390 -0.052754
C 0.405210 0.427460 0.850540 -0.050662
C 0.382200 0.474890 0.830630 0.276002
C 0.406410 0.451670 0.831040 0.010644
C 0.430680 0.453040 0.811700 -0.053587
C 0.208370 0.648430 0.957260 -0.049846
C 0.253050 0.625010 0.962580 0.282121
C 0.227950 0.624940 0.964940 0.011645
C 0.223900 0.601430 0.973220 -0.050701
C 0.267990 0.705160 0.863890 -0.052716
C 0.299610 0.668310 0.888040 0.273724
C 0.292400 0.685300 0.863600 0.010793
C 0.261520 0.720830 0.840850 -0.050712
C 0.271990 0.732610 0.792300 0.281177
C 0.279270 0.717260 0.816720 0.010846
C 0.310160 0.681900 0.839430 -0.055097
C 0.303740 0.697570 0.816470 -0.049971
C 0.322640 0.620990 0.772120 -0.052675
C 0.313630 0.648410 0.762760 -0.050362
C 0.241940 0.536320 0.899500 -0.050628
C 0.273040 0.528300 0.857000 0.278946
C 0.246720 0.539870 0.873690 0.010764
C 0.217500 0.549380 0.914230 -0.056316
C 0.332570 0.668080 0.921380 0.280080
C 0.197470 0.566150 0.903390 0.009843
C 0.226380 0.555920 0.863310 -0.053496
C 0.202130 0.568810 0.877940 -0.045829
O 0.461030 0.502140 0.611240 0.274706
O 0.368830 0.525250 0.772650 0.281268
O 0.443520 0.484770 0.663700 0.274907
O 0.383700 0.496730 0.813200 0.276685
O 0.319690 0.471760 0.847730 0.278356
O 0.256260 0.646810 0.953520 0.289135
O 0.280980 0.646700 0.979460 0.288381
O 0.283900 0.672770 0.909370 0.284077
O 0.321490 0.650000 0.886470 0.270442
O 0.249270 0.749400 0.793360 0.288857
O 0.288670 0.727710 0.771430 0.286811
O 0.339260 0.565560 0.791400 0.277420
O 0.293460 0.702490 0.746040 0.284711
O 0.290160 0.511110 0.867620 0.278163
O 0.353320 0.536570 0.832640 0.281950
O 0.308550 0.672270 0.935080 0.285286
O 0.339070 0.599430 0.904140 0.283600
H 0.476220 0.539020 0.577470 0.130545
H 0.409170 0.515320 0.735150 0.129496
H 0.435290 0.500730 0.697490 0.129315
H 0.386950 0.425540 0.865770 0.132245
H 0.432360 0.471310 0.796340 0.126176
H 0.210610 0.666980 0.950640 0.130248
H 0.238420 0.582900 0.979180 0.129934
H 0.253740 0.708490 0.881990 0.127758
H 0.242410 0.735570 0.842030 0.128188
H 0.329170 0.666980 0.838190 0.128943
H 0.317970 0.693940 0.798490 0.129247
H 0.341070 0.610900 0.775610 0.129805
H 0.325490 0.658350 0.759510 0.130323
H 0.257300 0.524080 0.908020 0.122795
H 0.214520 0.546900 0.933760 0.121952
H 0.229280 0.558950 0.843630 0.134131
H 0.187110 0.581310 0.868980 0.137144
Cr 0.114230 0.944230 0.657700 -2.344605
Cr 0.306560 0.803480 0.530340 -2.294690
C 0.422400 0.569440 0.547230 -0.052250
C 0.361020 0.726960 0.512470 -0.051921
C 0.376030 0.705390 0.504030 -0.052624
C 0.316790 0.850540 0.427460 -0.050607
C 0.312270 0.830630 0.474890 0.275908
C 0.310890 0.831040 0.451670 0.010616
C 0.304580 0.811700 0.453040 -0.053594
C 0.185940 0.957260 0.648430 -0.049878
C 0.159360 0.962580 0.625010 0.282228
C 0.182180 0.964940 0.624940 0.011653
C 0.201450 0.973220 0.601430 -0.050717
C 0.162970 0.863890 0.705160 -0.052626
C 0.144040 0.888040 0.668310 0.273816
C 0.158700 0.863600 0.685300 0.010775
C 0.176810 0.840850 0.720830 -0.050889
C 0.203100 0.792300 0.732610 0.281248
C 0.186750 0.816720 0.717260 0.010879
C 0.168510 0.839430 0.681900 -0.055072
C 0.182220 0.816470 0.697570 -0.050011
C 0.284250 0.772120 0.620990 -0.052708
C 0.275200 0.762760 0.648410 -0.050341
C 0.322240 0.899500 0.536320 -0.050452
C 0.341660 0.857000 0.528300 0.278890
C 0.339720 0.873690 0.539870 0.010734
C 0.318890 0.914230 0.549380 -0.056449
C 0.077960 0.921380 0.668080 0.280065
C 0.332990 0.903390 0.566150 0.009876
C 0.354380 0.863310 0.555920 -0.053407
C 0.351110 0.877940 0.568810 -0.045908
O 0.425590 0.611240 0.502140 0.274760
O 0.333270 0.772650 0.525250 0.281249
O 0.408010 0.663700 0.484770 0.274994
O 0.306370 0.813200 0.496730 0.276563
O 0.360820 0.847730 0.471760 0.278186
O 0.143410 0.953520 0.646810 0.289211
O 0.092850 0.979460 0.646700 0.288364
O 0.133960 0.909370 0.672770 0.284156
O 0.142050 0.886470 0.650000 0.270489
O 0.207970 0.793360 0.749400 0.288871
O 0.212180 0.771430 0.727710 0.286738
O 0.303790 0.791400 0.565560 0.277310
O 0.258010 0.746040 0.702490 0.284751
O 0.331120 0.867620 0.511110 0.277845
O 0.277460 0.832640 0.536570 0.281715
O 0.084100 0.935080 0.672270 0.285437
O 0.157370 0.904140 0.599430 0.283696
H 0.407290 0.577470 0.539020 0.130574
H 0.340370 0.735150 0.515320 0.129514
H 0.366490 0.697490 0.500730 0.129308
H 0.321740 0.865770 0.425540 0.132243
H 0.299990 0.796340 0.471310 0.126154
H 0.171760 0.950640 0.666980 0.130267
H 0.199500 0.979180 0.582900 0.129948
H 0.155790 0.881990 0.708490 0.127739
H 0.179980 0.842030 0.735570 0.128228
H 0.165670 0.838190 0.666980 0.128969
H 0.189610 0.798490 0.693940 0.129261
H 0.272420 0.775610 0.610900 0.129802
H 0.256650 0.759510 0.658350 0.130323
H 0.310590 0.908020 0.524080 0.122771
H 0.304830 0.933760 0.546900 0.121985
H 0.368140 0.843630 0.558950 0.134139
H 0.362600 0.868980 0.581310 0.137098
Cr 0.944230 0.114230 0.283840 -2.344473
Cr 0.803480 0.306560 0.359630 -2.294553
C 0.569440 0.422400 0.460920 -0.052212
C 0.726960 0.361020 0.399550 -0.051813
C 0.705390 0.376030 0.414550 -0.052721
C 0.850540 0.316790 0.405210 -0.050705
C 0.830630 0.312270 0.382200 0.276117
C 0.831040 0.310890 0.406410 0.010652
C 0.811700 0.304580 0.430680 -0.053596
C 0.957260 0.185940 0.208370 -0.049820
C 0.962580 0.159360 0.253050 0.282204
C 0.964940 0.182180 0.227950 0.011637
C 0.973220 0.201450 0.223900 -0.050726
C 0.863890 0.162970 0.267990 -0.052789
C 0.888040 0.144040 0.299610 0.273793
C 0.863600 0.158700 0.292400 0.010801
C 0.840850 0.176810 0.261520 -0.050660
C 0.792300 0.203100 0.271990 0.281195
C 0.816720 0.186750 0.279270 0.010836
C 0.839430 0.168510 0.310160 -0.055071
C 0.816470 0.182220 0.303740 -0.049923
C 0.772120 0.284250 0.322640 -0.052729
C 0.762760 0.275200 0.313630 -0.050328
C 0.899500 0.322240 0.241940 -0.050577
C 0.857000 0.341660 0.273040 0.278916
C 0.873690 0.339720 0.246720 0.010752
C 0.914230 0.318890 0.217500 -0.056395
C 0.921380 0.077960 0.332570 0.280003
C 0.903390 0.332990 0.197470 0.009867
C 0.863310 0.354380 0.226380 -0.053488
C 0.877940 0.351110 0.202130 -0.045860
O 0.611240 0.425590 0.461030 0.274773
O 0.772650 0.333270 0.368830 0.281284
O 0.663700 0.408010 0.443520 0.274958
O 0.813200 0.306370 0.383700 0.276693
O 0.847730 0.360820 0.319690 0.278085
O 0.953520 0.143410 0.256260 0.289178
O 0.979460 0.092850 0.280980 0.288359
O 0.909370 0.133960 0.283900 0.284124
O 0.886470 0.142050 0.321490 0.270629
O 0.793360 0.207970 0.249270 0.288867
O 0.771430 0.212180 0.288670 0.286847
O 0.791400 0.303790 0.339260 0.277382
O 0.746040 0.258010 0.293460 0.284794
O 0.867620 0.331120 0.290160 0.278190
O 0.832640 0.277460 0.353320 0.281567
O 0.935080 0.084100 0.308550 0.285371
O 0.904140 0.157370 0.339070 0.283538
H 0.577470 0.407290 0.476220 0.130554
H 0.735150 0.340370 0.409170 0.129493
H 0.697490 0.366490 0.435290 0.129317
H 0.865770 0.321740 0.386950 0.132231
H 0.796340 0.299990 0.432360 0.126167
H 0.950640 0.171760 0.210610 0.130240
H 0.979180 0.199500 0.238420 0.129928
H 0.881990 0.155790 0.253740 0.127756
H 0.842030 0.179980 0.242410 0.128178
H 0.838190 0.165670 0.329170 0.128943
H 0.798490 0.189610 0.317970 0.129245
H 0.775610 0.272420 0.341070 0.129788
H 0.759510 0.256650 0.325490 0.130325
H 0.908020 0.310590 0.257300 0.122764
H 0.933760 0.304830 0.214520 0.121961
H 0.843630 0.368140 0.229280 0.134123
H 0.868980 0.362600 0.187110 0.137133
Cr 0.657700 0.283840 0.114230 -2.344751
Cr 0.530340 0.359630 0.306560 -2.295118
C 0.547230 0.460920 0.422400 -0.052237
C 0.512470 0.399550 0.361020 -0.051814
C 0.504030 0.414550 0.376030 -0.052721
C 0.427460 0.405210 0.316790 -0.050656
C 0.474890 0.382200 0.312270 0.275960
C 0.451670 0.406410 0.310890 0.010640
C 0.453040 0.430680 0.304580 -0.053568
C 0.648430 0.208370 0.185940 -0.049861
C 0.625010 0.253050 0.159360 0.282189
C 0.624940 0.227950 0.182180 0.011640
C 0.601430 0.223900 0.201450 -0.050704
C 0.705160 0.267990 0.162970 -0.052790
C 0.668310 0.299610 0.144040 0.273881
C 0.685300 0.292400 0.158700 0.010798
C 0.720830 0.261520 0.176810 -0.050686
C 0.732610 0.271990 0.203100 0.281248
C 0.717260 0.279270 0.186750 0.010842
C 0.681900 0.310160 0.168510 -0.055078
C 0.697570 0.303740 0.182220 -0.049921
C 0.620990 0.322640 0.284250 -0.052671
C 0.648410 0.313630 0.275200 -0.050358
C 0.536320 0.241940 0.322240 -0.050410
C 0.528300 0.273040 0.341660 0.278804
C 0.539870 0.246720 0.339720 0.010733
C 0.549380 0.217500 0.318890 -0.056533
C 0.668080 0.332570 0.077960 0.280078
C 0.566150 0.197470 0.332990 0.009890
C 0.555920 0.226380 0.354380 -0.053367
C 0.568810 0.202130 0.351110 -0.045907
O 0.502140 0.461030 0.425590 0.274721
O 0.525250 0.368830 0.333270 0.281521
O 0.484770 0.443520 0.408010 0.274918
O 0.496730 0.383700 0.306370 0.276705
O 0.471760 0.319690 0.360820 0.278074
O 0.646810 0.256260 0.143410 0.289240
O 0.646700 0.280980 0.092850 0.288226
O 0.672770 0.283900 0.133960 0.284189
O 0.650000 0.321490 0.142050 0.270462
O 0.749400 0.249270 0.207970 0.288879
O 0.727710 0.288670 0.212180 0.286630
O 0.565560 0.339260 0.303790 0.277457
O 0.702490 0.293460 0.258010 0.284803
O 0.511110 0.290160 0.331120 0.278109
O 0.536570 0.353320 0.277460 0.281518
O 0.672270 0.308550 0.084100 0.285414
O 0.599430 0.339070 0.157370 0.283649
H 0.539020 0.476220 0.407290 0.130562
H 0.515320 0.409170 0.340370 0.129519
H 0.500730 0.435290 0.366490 0.129318
H 0.425540 0.386950 0.321740 0.132248
H 0.471310 0.432360 0.299990 0.126189
H 0.666980 0.210610 0.171760 0.130271
H 0.582900 0.238420 0.199500 0.129944
H 0.708490 0.253740 0.155790 0.127750
H 0.735570 0.242410 0.179980 0.128172
H 0.666980 0.329170 0.165670 0.128947
H 0.693940 0.317970 0.189610 0.129262
H 0.610900 0.341070 0.272420 0.129816
H 0.658350 0.325490 0.256650 0.130333
H 0.524080 0.257300 0.310590 0.122767
H 0.546900 0.214520 0.304830 0.121991
H 0.558950 0.229280 0.368140 0.134131
H 0.581310 0.187110 0.362600 0.137129
Cr 0.418800 0.471850 0.471850 -2.266011
Cr 0.471850 0.418800 0.637500 -2.266146
Cr 0.471850 0.637500 0.418800 -2.266146
Cr 0.637500 0.471850 0.471850 -2.265872
Cr 0.471850 0.418800 0.471850 -2.266011
Cr 0.637500 0.471850 0.418800 -2.266146
Cr 0.418800 0.471850 0.637500 -2.266146
Cr 0.471850 0.637500 0.471850 -2.265872
Cr 0.471850 0.471850 0.418800 -2.266011
Cr 0.418800 0.637500 0.471850 -2.266146
Cr 0.637500 0.418800 0.471850 -2.266146
Cr 0.471850 0.471850 0.637500 -2.265872
Cr 0.831200 0.778150 0.612500 -2.266146
Cr 0.778150 0.831200 0.778150 -2.266011
Cr 0.778150 0.612500 0.778150 -2.265872
Cr 0.612500 0.778150 0.831200 -2.266146
Cr 0.778150 0.831200 0.612500 -2.266146
Cr 0.612500 0.778150 0.778150 -2.265872
Cr 0.831200 0.778150 0.778150 -2.266011
Cr 0.778150 0.612500 0.831200 -2.266146
Cr 0.778150 0.778150 0.612500 -2.265872
Cr 0.831200 0.612500 0.778150 -2.266146
Cr 0.612500 0.831200 0.778150 -2.266146
Cr 0.778150 0.778150 0.831200 -2.266011
Cr 0.125000 0.340650 0.625000 -2.271728
O 0.125000 0.310080 0.625000 0.887380
Cr 0.340650 0.125000 0.909350 -2.271492
O 0.310080 0.125000 0.939920 0.887277
Cr 0.625000 0.909350 0.125000 -2.271728
O 0.625000 0.939920 0.125000 0.887380
Cr 0.909350 0.625000 0.340650 -2.270854
O 0.939920 0.625000 0.310080 0.887068
Cr 0.625000 0.125000 0.340650 -2.271728
O 0.625000 0.125000 0.310080 0.887380
Cr 0.909350 0.340650 0.125000 -2.271492
O 0.939920 0.310080 0.125000 0.887277
Cr 0.125000 0.625000 0.909350 -2.271728
O 0.125000 0.625000 0.939920 0.887380
Cr 0.340650 0.909350 0.625000 -2.270854
O 0.310080 0.939920 0.625000 0.887068
Cr 0.340650 0.625000 0.125000 -2.271728
O 0.310080 0.625000 0.125000 0.887380
Cr 0.125000 0.909350 0.340650 -2.271492
O 0.125000 0.939920 0.310080 0.887277
Cr 0.909350 0.125000 0.625000 -2.271728
O 0.939920 0.125000 0.625000 0.887380
Cr 0.625000 0.340650 0.909350 -2.270854
O 0.625000 0.310080 0.939920 0.887068
Cr 0.125000 0.909350 0.625000 -2.271728
O 0.125000 0.939920 0.625000 0.887380
Cr 0.909350 0.125000 0.340650 -2.271492
O 0.939920 0.125000 0.310080 0.887277
Cr 0.625000 0.340650 0.125000 -2.271728
O 0.625000 0.310080 0.125000 0.887380
Cr 0.340650 0.625000 0.909350 -2.270854
O 0.310080 0.625000 0.939920 0.887068
Cr 0.625000 0.125000 0.909350 -2.271728
O 0.625000 0.125000 0.939920 0.887380
Cr 0.340650 0.909350 0.125000 -2.271492
O 0.310080 0.939920 0.125000 0.887277
Cr 0.125000 0.625000 0.340650 -2.271728
O 0.125000 0.625000 0.310080 0.887380
Cr 0.909350 0.340650 0.625000 -2.270854
O 0.939920 0.310080 0.625000 0.887068
Cr 0.909350 0.625000 0.125000 -2.271728
O 0.939920 0.625000 0.125000 0.887380
Cr 0.125000 0.340650 0.909350 -2.271492
O 0.125000 0.310080 0.939920 0.887277
Cr 0.340650 0.125000 0.625000 -2.271728
O 0.310080 0.125000 0.625000 0.887380
Cr 0.625000 0.909350 0.340650 -2.270854
O 0.625000 0.939920 0.310080 0.887068
Cr 0.229830 0.229830 0.770170 -2.354024
O 0.251570 0.251570 0.748430 0.895904
Cr 0.770170 0.770170 0.229830 -2.353982
O 0.748430 0.748430 0.251570 0.895794
Cr 0.770170 0.229830 0.229830 -2.354024
O 0.748430 0.251570 0.251570 0.895904
Cr 0.229830 0.770170 0.770170 -2.353982
O 0.251570 0.748430 0.748430 0.895794
Cr 0.229830 0.770170 0.229830 -2.354024
O 0.251570 0.748430 0.251570 0.895904
Cr 0.770170 0.229830 0.770170 -2.353982
O 0.748430 0.251570 0.748430 0.895794
Cr 0.020170 0.020170 0.479830 -2.354024
O 0.998430 0.998430 0.501570 0.895904
Cr 0.479830 0.479830 0.020170 -2.353982
O 0.501570 0.501570 0.998430 0.895794
Cr 0.479830 0.020170 0.479830 -2.353982
O 0.501570 0.998430 0.501570 0.895794
Cr 0.020170 0.479830 0.020170 -2.354024
O 0.998430 0.501570 0.998430 0.895904
Cr 0.020170 0.479830 0.479830 -2.353982
O 0.998430 0.501570 0.501570 0.895794
Cr 0.479830 0.020170 0.020170 -2.354024
O 0.501570 0.998430 0.998430 0.895904
Cr 0.235920 0.288960 0.737560 -2.331743
Cr 0.288960 0.235920 0.737560 -2.331743
Cr 0.737560 0.737560 0.235920 -2.331559
Cr 0.737560 0.737560 0.288960 -2.331360
Cr 0.737560 0.235920 0.288960 -2.331743
Cr 0.737560 0.288960 0.235920 -2.331743
Cr 0.235920 0.737560 0.737560 -2.331559
Cr 0.288960 0.737560 0.737560 -2.331360
Cr 0.288960 0.737560 0.235920 -2.331743
Cr 0.235920 0.737560 0.288960 -2.331743
Cr 0.737560 0.235920 0.737560 -2.331559
Cr 0.737560 0.288960 0.737560 -2.331360
Cr 0.014080 0.961040 0.512440 -2.331743
Cr 0.961040 0.014080 0.512440 -2.331743
Cr 0.512440 0.512440 0.961040 -2.331360
Cr 0.512440 0.512440 0.014080 -2.331559
Cr 0.512440 0.014080 0.512440 -2.331559
Cr 0.512440 0.961040 0.512440 -2.331360
Cr 0.014080 0.512440 0.961040 -2.331743
Cr 0.961040 0.512440 0.014080 -2.331743
Cr 0.961040 0.512440 0.512440 -2.331360
Cr 0.014080 0.512440 0.512440 -2.331559
Cr 0.512440 0.014080 0.961040 -2.331743
Cr 0.512440 0.961040 0.014080 -2.331743
Cr 0.325740 0.325740 0.492850 -2.278519
C 0.357230 0.357230 0.522980 0.280206
C 0.372660 0.372660 0.516460 0.010464
C 0.419180 0.419180 0.489080 0.276136
C 0.403030 0.403030 0.499380 0.010620
C 0.317620 0.317620 0.577500 0.275002
C 0.308070 0.308070 0.606800 0.011017
C 0.280000 0.280000 0.690490 0.277829
C 0.289650 0.289650 0.662720 0.008318
O 0.330630 0.330630 0.517870 0.869497
Cr 0.325740 0.325740 0.855660 -2.278782
C 0.357230 0.357230 0.762560 0.280105
C 0.372660 0.372660 0.738220 0.010465
C 0.419180 0.419180 0.672570 0.276095
C 0.403030 0.403030 0.694550 0.010622
C 0.317620 0.317620 0.787250 0.274594
C 0.308070 0.308070 0.777050 0.011071
C 0.280000 0.280000 0.749510 0.277825
C 0.289650 0.289650 0.757980 0.008309
O 0.330630 0.330630 0.820860 0.869714
Cr 0.492850 0.855660 0.325740 -2.279028
C 0.522980 0.762560 0.357230 0.280095
C 0.516460 0.738220 0.372660 0.010459
C 0.489080 0.672570 0.419180 0.275962
C 0.499380 0.694550 0.403030 0.010595
C 0.577500 0.787250 0.317620 0.274969
C 0.606800 0.777050 0.308070 0.011034
C 0.690490 0.749510 0.280000 0.277799
C 0.662720 0.757980 0.289650 0.008318
O 0.517870 0.820860 0.330630 0.869725
Cr 0.855660 0.492850 0.325740 -2.279028
C 0.762560 0.522980 0.357230 0.280095
C 0.738220 0.516460 0.372660 0.010459
C 0.672570 0.489080 0.419180 0.275962
C 0.694550 0.499380 0.403030 0.010595
C 0.787250 0.577500 0.317620 0.274969
C 0.777050 0.606800 0.308070 0.011034
C 0.749510 0.690490 0.280000 0.277799
C 0.757980 0.662720 0.289650 0.008318
O 0.820860 0.517870 0.330630 0.869725
Cr 0.492850 0.325740 0.325740 -2.278519
C 0.522980 0.357230 0.357230 0.280206
C 0.516460 0.372660 0.372660 0.010464
C 0.489080 0.419180 0.419180 0.276136
C 0.499380 0.403030 0.403030 0.010620
C 0.577500 0.317620 0.317620 0.275002
C 0.606800 0.308070 0.308070 0.011017
C 0.690490 0.280000 0.280000 0.277829
C 0.662720 0.289650 0.289650 0.008318
O 0.517870 0.330630 0.330630 0.869497
Cr 0.855660 0.325740 0.325740 -2.278782
C 0.762560 0.357230 0.357230 0.280105
C 0.738220 0.372660 0.372660 0.010465
C 0.672570 0.419180 0.419180 0.276095
C 0.694550 0.403030 0.403030 0.010622
C 0.787250 0.317620 0.317620 0.274594
C 0.777050 0.308070 0.308070 0.011071
C 0.749510 0.280000 0.280000 0.277825
C 0.757980 0.289650 0.289650 0.008309
O 0.820860 0.330630 0.330630 0.869714
Cr 0.325740 0.492850 0.855660 -2.279028
C 0.357230 0.522980 0.762560 0.280095
C 0.372660 0.516460 0.738220 0.010459
C 0.419180 0.489080 0.672570 0.275962
C 0.403030 0.499380 0.694550 0.010595
C 0.317620 0.577500 0.787250 0.274969
C 0.308070 0.606800 0.777050 0.011034
C 0.280000 0.690490 0.749510 0.277799
C 0.289650 0.662720 0.757980 0.008318
O 0.330630 0.517870 0.820860 0.869725
Cr 0.325740 0.855660 0.492850 -2.279028
C 0.357230 0.762560 0.522980 0.280095
C 0.372660 0.738220 0.516460 0.010459
C 0.419180 0.672570 0.489080 0.275962
C 0.403030 0.694550 0.499380 0.010595
C 0.317620 0.787250 0.577500 0.274969
C 0.308070 0.777050 0.606800 0.011034
C 0.280000 0.749510 0.690490 0.277799
C 0.289650 0.757980 0.662720 0.008318
O 0.330630 0.820860 0.517870 0.869725
Cr 0.325740 0.492850 0.325740 -2.278519
C 0.357230 0.522980 0.357230 0.280206
C 0.372660 0.516460 0.372660 0.010464
C 0.419180 0.489080 0.419180 0.276136
C 0.403030 0.499380 0.403030 0.010620
C 0.317620 0.577500 0.317620 0.275002
C 0.308070 0.606800 0.308070 0.011017
C 0.280000 0.690490 0.280000 0.277829
C 0.289650 0.662720 0.289650 0.008318
O 0.330630 0.517870 0.330630 0.869497
Cr 0.325740 0.855660 0.325740 -2.278782
C 0.357230 0.762560 0.357230 0.280105
C 0.372660 0.738220 0.372660 0.010465
C 0.419180 0.672570 0.419180 0.276095
C 0.403030 0.694550 0.403030 0.010622
C 0.317620 0.787250 0.317620 0.274594
C 0.308070 0.777050 0.308070 0.011071
C 0.280000 0.749510 0.280000 0.277825
C 0.289650 0.757980 0.289650 0.008309
O 0.330630 0.820860 0.330630 0.869714
Cr 0.855660 0.325740 0.492850 -2.279028
C 0.762560 0.357230 0.522980 0.280095
C 0.738220 0.372660 0.516460 0.010459
C 0.672570 0.419180 0.489080 0.275962
C 0.694550 0.403030 0.499380 0.010595
C 0.787250 0.317620 0.577500 0.274969
C 0.777050 0.308070 0.606800 0.011034
C 0.749510 0.280000 0.690490 0.277799
C 0.757980 0.289650 0.662720 0.008318
O 0.820860 0.330630 0.517870 0.869725
Cr 0.492850 0.325740 0.855660 -2.279028
C 0.522980 0.357230 0.762560 0.280095
C 0.516460 0.372660 0.738220 0.010459
C 0.489080 0.419180 0.672570 0.275962
C 0.499380 0.403030 0.694550 0.010595
C 0.577500 0.317620 0.787250 0.274969
C 0.606800 0.308070 0.777050 0.011034
C 0.690490 0.280000 0.749510 0.277799
C 0.662720 0.289650 0.757980 0.008318
O 0.517870 0.330630 0.820860 0.869725
Cr 0.924260 0.924260 0.394340 -2.278782
C 0.892770 0.892770 0.487440 0.280105
C 0.877340 0.877340 0.511780 0.010465
C 0.830820 0.830820 0.577430 0.276095
C 0.846970 0.846970 0.555450 0.010622
C 0.932380 0.932380 0.462750 0.274594
C 0.941930 0.941930 0.472950 0.011071
C 0.970000 0.970000 0.500490 0.277825
C 0.960350 0.960350 0.492020 0.008309
O 0.919370 0.919370 0.429140 0.869714
Cr 0.924260 0.924260 0.757150 -2.278519
C 0.892770 0.892770 0.727020 0.280206
C 0.877340 0.877340 0.733540 0.010464
C 0.830820 0.830820 0.760920 0.276136
C 0.846970 0.846970 0.750620 0.010620
C 0.932380 0.932380 0.672500 0.275002
C 0.941930 0.941930 0.643200 0.011017
C 0.970000 0.970000 0.559510 0.277829
C 0.960350 0.960350 0.587280 0.008318
O 0.919370 0.919370 0.732130 0.869497
Cr 0.757150 0.394340 0.924260 -2.279028
C 0.727020 0.487440 0.892770 0.280095
C 0.733540 0.511780 0.877340 0.010459
C 0.760920 0.577430 0.830820 0.275962
C 0.750620 0.555450 0.846970 0.010595
C 0.672500 0.462750 0.932380 0.274969
C 0.643200 0.472950 0.941930 0.011034
C 0.559510 0.500490 0.970000 0.277799
C 0.587280 0.492020 0.960350 0.008318
O 0.732130 0.429140 0.919370 0.869725
Cr 0.394340 0.757150 0.924260 -2.279028
C 0.487440 0.727020 0.892770 0.280095
C 0.511780 0.733540 0.877340 0.010459
C 0.577430 0.760920 0.830820 0.275962
C 0.555450 0.750620 0.846970 0.010595
C 0.462750 0.672500 0.932380 0.274969
C 0.472950 0.643200 0.941930 0.011034
C 0.500490 0.559510 0.970000 0.277799
C 0.492020 0.587280 0.960350 0.008318
O 0.429140 0.732130 0.919370 0.869725
Cr 0.757150 0.924260 0.394340 -2.279028
C 0.727020 0.892770 0.487440 0.280095
C 0.733540 0.877340 0.511780 0.010459
C 0.760920 0.830820 0.577430 0.275962
C 0.750620 0.846970 0.555450 0.010595
C 0.672500 0.932380 0.462750 0.274969
C 0.643200 0.941930 0.472950 0.011034
C 0.559510 0.970000 0.500490 0.277799
C 0.587280 0.960350 0.492020 0.008318
O 0.732130 0.919370 0.429140 0.869725
Cr 0.394340 0.924260 0.757150 -2.279028
C 0.487440 0.892770 0.727020 0.280095
C 0.511780 0.877340 0.733540 0.010459
C 0.577430 0.830820 0.760920 0.275962
C 0.555450 0.846970 0.750620 0.010595
C 0.462750 0.932380 0.672500 0.274969
C 0.472950 0.941930 0.643200 0.011034
C 0.500490 0.970000 0.559510 0.277799
C 0.492020 0.960350 0.587280 0.008318
O 0.429140 0.919370 0.732130 0.869725
Cr 0.924260 0.757150 0.924260 -2.278519
C 0.892770 0.727020 0.892770 0.280206
C 0.877340 0.733540 0.877340 0.010464
C 0.830820 0.760920 0.830820 0.276136
C 0.846970 0.750620 0.846970 0.010620
C 0.932380 0.672500 0.932380 0.275002
C 0.941930 0.643200 0.941930 0.011017
C 0.970000 0.559510 0.970000 0.277829
C 0.960350 0.587280 0.960350 0.008318
O 0.919370 0.732130 0.919370 0.869497
Cr 0.924260 0.394340 0.924260 -2.278782
C 0.892770 0.487440 0.892770 0.280105
C 0.877340 0.511780 0.877340 0.010465
C 0.830820 0.577430 0.830820 0.276095
C 0.846970 0.555450 0.846970 0.010622
C 0.932380 0.462750 0.932380 0.274594
C 0.941930 0.472950 0.941930 0.011071
C 0.970000 0.500490 0.970000 0.277825
C 0.960350 0.492020 0.960350 0.008309
O 0.919370 0.429140 0.919370 0.869714
Cr 0.924260 0.757150 0.394340 -2.279028
C 0.892770 0.727020 0.487440 0.280095
C 0.877340 0.733540 0.511780 0.010459
C 0.830820 0.760920 0.577430 0.275962
C 0.846970 0.750620 0.555450 0.010595
C 0.932380 0.672500 0.462750 0.274969
C 0.941930 0.643200 0.472950 0.011034
C 0.970000 0.559510 0.500490 0.277799
C 0.960350 0.587280 0.492020 0.008318
O 0.919370 0.732130 0.429140 0.869725
Cr 0.924260 0.394340 0.757150 -2.279028
C 0.892770 0.487440 0.727020 0.280095
C 0.877340 0.511780 0.733540 0.010459
C 0.830820 0.577430 0.760920 0.275962
C 0.846970 0.555450 0.750620 0.010595
C 0.932380 0.462750 0.672500 0.274969
C 0.941930 0.472950 0.643200 0.011034
C 0.970000 0.500490 0.559510 0.277799
C 0.960350 0.492020 0.587280 0.008318
O 0.919370 0.429140 0.732130 0.869725
Cr 0.394340 0.924260 0.924260 -2.278782
C 0.487440 0.892770 0.892770 0.280105
C 0.511780 0.877340 0.877340 0.010465
C 0.577430 0.830820 0.830820 0.276095
C 0.555450 0.846970 0.846970 0.010622
C 0.462750 0.932380 0.932380 0.274594
C 0.472950 0.941930 0.941930 0.011071
C 0.500490 0.970000 0.970000 0.277825
C 0.492020 0.960350 0.960350 0.008309
O 0.429140 0.919370 0.919370 0.869714
Cr 0.757150 0.924260 0.924260 -2.278519
C 0.727020 0.892770 0.892770 0.280206
C 0.733540 0.877340 0.877340 0.010464
C 0.760920 0.830820 0.830820 0.276136
C 0.750620 0.846970 0.846970 0.010620
C 0.672500 0.932380 0.932380 0.275002
C 0.643200 0.941930 0.941930 0.011017
C 0.559510 0.970000 0.970000 0.277829
C 0.587280 0.960350 0.960350 0.008318
O 0.732130 0.919370 0.919370 0.869497
C 0.442800 0.442800 0.512290 0.274002
C 0.441880 0.441880 0.535550 0.008932
C 0.442800 0.442800 0.602110 0.274042
C 0.441880 0.441880 0.580690 0.008903
C 0.512290 0.602110 0.442800 0.274017
C 0.535550 0.580690 0.441880 0.008928
C 0.602110 0.512290 0.442800 0.274017
C 0.580690 0.535550 0.441880 0.008928
C 0.512290 0.442800 0.442800 0.274002
C 0.535550 0.441880 0.441880 0.008932
C 0.602110 0.442800 0.442800 0.274042
C 0.580690 0.441880 0.441880 0.008903
C 0.442800 0.512290 0.602110 0.274017
C 0.441880 0.535550 0.580690 0.008928
C 0.442800 0.602110 0.512290 0.274017
C 0.441880 0.580690 0.535550 0.008928
C 0.442800 0.512290 0.442800 0.274002
C 0.441880 0.535550 0.441880 0.008932
C 0.442800 0.602110 0.442800 0.274042
C 0.441880 0.580690 0.441880 0.008903
C 0.602110 0.442800 0.512290 0.274017
C 0.580690 0.441880 0.535550 0.008928
C 0.512290 0.442800 0.602110 0.274017
C 0.535550 0.441880 0.580690 0.008928
C 0.807200 0.807200 0.647890 0.274042
C 0.808120 0.808120 0.669310 0.008903
C 0.807200 0.807200 0.737710 0.274002
C 0.808120 0.808120 0.714450 0.008932
C 0.737710 0.647890 0.807200 0.274017
C 0.714450 0.669310 0.808120 0.008928
C 0.647890 0.737710 0.807200 0.274017
C 0.669310 0.714450 0.808120 0.008928
C 0.737710 0.807200 0.647890 0.274017
C 0.714450 0.808120 0.669310 0.008928
C 0.647890 0.807200 0.737710 0.274017
C 0.669310 0.808120 0.714450 0.008928
C 0.807200 0.737710 0.807200 0.274002
C 0.808120 0.714450 0.808120 0.008932
C 0.807200 0.647890 0.807200 0.274042
C 0.808120 0.669310 0.808120 0.008903
C 0.807200 0.737710 0.647890 0.274017
C 0.808120 0.714450 0.669310 0.008928
C 0.807200 0.647890 0.737710 0.274017
C 0.808120 0.669310 0.714450 0.008928
C 0.647890 0.807200 0.807200 0.274042
C 0.669310 0.808120 0.808120 0.008903
C 0.737710 0.807200 0.807200 0.274002
C 0.714450 0.808120 0.808120 0.008932
O 0.454140 0.454140 0.454140 0.858684
O 0.454140 0.454140 0.637590 0.858717
O 0.454140 0.637590 0.454140 0.858717
O 0.637590 0.454140 0.454140 0.858717
O 0.795860 0.795860 0.612410 0.858717
O 0.795860 0.795860 0.795860 0.858684
O 0.795860 0.612410 0.795860 0.858717
O 0.612410 0.795860 0.795860 0.858717
