data_WIZMAV_PM
_symmetry_space_group_name_H-M   'P 1'
_cell_length_a 26.896000
_cell_length_b 26.896000
_cell_length_c 26.896000
_cell_angle_alpha 90.000000
_cell_angle_beta 90.000000
_cell_angle_gamma 90.000000
_symmetry_Int_Tables_number 1

loop_
_symmetry_equiv_pos_as_xyz
 'x, y, z'

loop_
_atom_site_label
_atom_site_fract_x
_atom_site_fract_y
_atom_site_fract_z
_atom_site_charge
Zr 0.092040 -0.000000 -0.000000 3.003540
O 0.045400 0.045400 0.045400 -1.268419
O 0.132600 -0.000000 0.071900 -0.676669
C 0.117200 -0.000000 0.117200 0.586060
C 0.156500 0.000000 0.156500 0.026361
C 0.205800 -0.000000 0.144700 0.002083
H 0.214900 -0.000000 0.111400 0.097751
C 0.242000 -0.000000 0.179500 -0.182137
H 0.275100 -0.000000 0.169500 0.094821
C 0.230700 -0.000000 0.230700 0.059724
Zr 0.907960 -0.000000 -0.000000 3.003540
Zr 0.000000 0.092040 -0.000000 3.003540
Zr 0.000000 0.907960 -0.000000 3.003540
Zr 0.000000 0.000000 0.092040 3.003540
Zr 0.000000 0.000000 0.907960 3.003540
Zr 0.092040 0.500000 0.500000 3.003540
Zr 0.907960 0.500000 0.500000 3.003540
Zr 0.000000 0.592040 0.500000 3.003540
Zr 0.000000 0.407960 0.500000 3.003540
Zr 0.000000 0.500000 0.592040 3.003540
Zr 0.000000 0.500000 0.407960 3.003540
Zr 0.592040 -0.000000 0.500000 3.003540
Zr 0.407960 -0.000000 0.500000 3.003540
Zr 0.500000 0.092040 0.500000 3.003540
Zr 0.500000 0.907960 0.500000 3.003540
Zr 0.500000 -0.000000 0.592040 3.003540
Zr 0.500000 -0.000000 0.407960 3.003540
Zr 0.592040 0.500000 -0.000000 3.003540
Zr 0.407960 0.500000 -0.000000 3.003540
Zr 0.500000 0.592040 -0.000000 3.003540
Zr 0.500000 0.407960 -0.000000 3.003540
Zr 0.500000 0.500000 0.092040 3.003540
Zr 0.500000 0.500000 0.907960 3.003540
O 0.954600 0.954600 0.045400 -1.268419
O 0.954600 0.045400 0.954600 -1.268419
O 0.045400 0.954600 0.954600 -1.268419
O 0.045400 0.045400 0.954600 -1.268419
O 0.954600 0.954600 0.954600 -1.268419
O 0.045400 0.954600 0.045400 -1.268419
O 0.954600 0.045400 0.045400 -1.268419
O 0.045400 0.545400 0.545400 -1.268419
O 0.954600 0.454600 0.545400 -1.268419
O 0.954600 0.545400 0.454600 -1.268419
O 0.045400 0.454600 0.454600 -1.268419
O 0.045400 0.545400 0.454600 -1.268419
O 0.954600 0.454600 0.454600 -1.268419
O 0.045400 0.454600 0.545400 -1.268419
O 0.954600 0.545400 0.545400 -1.268419
O 0.545400 0.045400 0.545400 -1.268419
O 0.454600 0.954600 0.545400 -1.268419
O 0.454600 0.045400 0.454600 -1.268419
O 0.545400 0.954600 0.454600 -1.268419
O 0.545400 0.045400 0.454600 -1.268419
O 0.454600 0.954600 0.454600 -1.268419
O 0.545400 0.954600 0.545400 -1.268419
O 0.454600 0.045400 0.545400 -1.268419
O 0.545400 0.545400 0.045400 -1.268419
O 0.454600 0.454600 0.045400 -1.268419
O 0.454600 0.545400 0.954600 -1.268419
O 0.545400 0.454600 0.954600 -1.268419
O 0.545400 0.545400 0.954600 -1.268419
O 0.454600 0.454600 0.954600 -1.268419
O 0.545400 0.454600 0.045400 -1.268419
O 0.454600 0.545400 0.045400 -1.268419
O 0.867400 -0.000000 0.071900 -0.676669
O 0.867400 -0.000000 0.928100 -0.676669
O 0.132600 -0.000000 0.928100 -0.676669
O 0.071900 0.132600 -0.000000 -0.676669
O 0.071900 0.867400 -0.000000 -0.676669
O 0.928100 0.867400 -0.000000 -0.676669
O 0.928100 0.132600 -0.000000 -0.676669
O 0.000000 0.071900 0.132600 -0.676669
O 0.000000 0.071900 0.867400 -0.676669
O 0.000000 0.928100 0.867400 -0.676669
O 0.000000 0.928100 0.132600 -0.676669
O 0.000000 0.132600 0.928100 -0.676669
O 0.000000 0.867400 0.928100 -0.676669
O 0.000000 0.867400 0.071900 -0.676669
O 0.000000 0.132600 0.071900 -0.676669
O 0.132600 0.071900 -0.000000 -0.676669
O 0.867400 0.071900 -0.000000 -0.676669
O 0.867400 0.928100 -0.000000 -0.676669
O 0.132600 0.928100 -0.000000 -0.676669
O 0.071900 -0.000000 0.867400 -0.676669
O 0.071900 -0.000000 0.132600 -0.676669
O 0.928100 -0.000000 0.132600 -0.676669
O 0.928100 -0.000000 0.867400 -0.676669
O 0.132600 0.500000 0.571900 -0.676669
O 0.867400 0.500000 0.571900 -0.676669
O 0.867400 0.500000 0.428100 -0.676669
O 0.132600 0.500000 0.428100 -0.676669
O 0.071900 0.632600 0.500000 -0.676669
O 0.071900 0.367400 0.500000 -0.676669
O 0.928100 0.367400 0.500000 -0.676669
O 0.928100 0.632600 0.500000 -0.676669
O 0.000000 0.571900 0.632600 -0.676669
O 0.000000 0.571900 0.367400 -0.676669
O 0.000000 0.428100 0.367400 -0.676669
O 0.000000 0.428100 0.632600 -0.676669
O 0.000000 0.632600 0.428100 -0.676669
O 0.000000 0.367400 0.428100 -0.676669
O 0.000000 0.367400 0.571900 -0.676669
O 0.000000 0.632600 0.571900 -0.676669
O 0.132600 0.571900 0.500000 -0.676669
O 0.867400 0.571900 0.500000 -0.676669
O 0.867400 0.428100 0.500000 -0.676669
O 0.132600 0.428100 0.500000 -0.676669
O 0.071900 0.500000 0.367400 -0.676669
O 0.071900 0.500000 0.632600 -0.676669
O 0.928100 0.500000 0.632600 -0.676669
O 0.928100 0.500000 0.367400 -0.676669
O 0.632600 -0.000000 0.571900 -0.676669
O 0.367400 -0.000000 0.571900 -0.676669
O 0.367400 -0.000000 0.428100 -0.676669
O 0.632600 -0.000000 0.428100 -0.676669
O 0.571900 0.132600 0.500000 -0.676669
O 0.571900 0.867400 0.500000 -0.676669
O 0.428100 0.867400 0.500000 -0.676669
O 0.428100 0.132600 0.500000 -0.676669
O 0.500000 0.071900 0.632600 -0.676669
O 0.500000 0.071900 0.367400 -0.676669
O 0.500000 0.928100 0.367400 -0.676669
O 0.500000 0.928100 0.632600 -0.676669
O 0.500000 0.132600 0.428100 -0.676669
O 0.500000 0.867400 0.428100 -0.676669
O 0.500000 0.867400 0.571900 -0.676669
O 0.500000 0.132600 0.571900 -0.676669
O 0.632600 0.071900 0.500000 -0.676669
O 0.367400 0.071900 0.500000 -0.676669
O 0.367400 0.928100 0.500000 -0.676669
O 0.632600 0.928100 0.500000 -0.676669
O 0.571900 -0.000000 0.367400 -0.676669
O 0.571900 -0.000000 0.632600 -0.676669
O 0.428100 -0.000000 0.632600 -0.676669
O 0.428100 -0.000000 0.367400 -0.676669
O 0.632600 0.500000 0.071900 -0.676669
O 0.367400 0.500000 0.071900 -0.676669
O 0.367400 0.500000 0.928100 -0.676669
O 0.632600 0.500000 0.928100 -0.676669
O 0.571900 0.632600 -0.000000 -0.676669
O 0.571900 0.367400 -0.000000 -0.676669
O 0.428100 0.367400 -0.000000 -0.676669
O 0.428100 0.632600 -0.000000 -0.676669
O 0.500000 0.571900 0.132600 -0.676669
O 0.500000 0.571900 0.867400 -0.676669
O 0.500000 0.428100 0.867400 -0.676669
O 0.500000 0.428100 0.132600 -0.676669
O 0.500000 0.632600 0.928100 -0.676669
O 0.500000 0.367400 0.928100 -0.676669
O 0.500000 0.367400 0.071900 -0.676669
O 0.500000 0.632600 0.071900 -0.676669
O 0.632600 0.571900 -0.000000 -0.676669
O 0.367400 0.571900 -0.000000 -0.676669
O 0.367400 0.428100 -0.000000 -0.676669
O 0.632600 0.428100 -0.000000 -0.676669
O 0.571900 0.500000 0.867400 -0.676669
O 0.571900 0.500000 0.132600 -0.676669
O 0.428100 0.500000 0.132600 -0.676669
O 0.428100 0.500000 0.867400 -0.676669
C 0.882800 -0.000000 0.117200 0.586060
C 0.882800 -0.000000 0.882800 0.586060
C 0.117200 -0.000000 0.882800 0.586060
C 0.117200 0.117200 0.000000 0.586060
C 0.117200 0.882800 -0.000000 0.586060
C 0.882800 0.882800 -0.000000 0.586060
C 0.882800 0.117200 -0.000000 0.586060
C 0.000000 0.117200 0.117200 0.586060
C 0.000000 0.117200 0.882800 0.586060
C 0.000000 0.882800 0.882800 0.586060
C 0.000000 0.882800 0.117200 0.586060
C 0.117200 0.500000 0.617200 0.586060
C 0.882800 0.500000 0.617200 0.586060
C 0.882800 0.500000 0.382800 0.586060
C 0.117200 0.500000 0.382800 0.586060
C 0.117200 0.617200 0.500000 0.586060
C 0.117200 0.382800 0.500000 0.586060
C 0.882800 0.382800 0.500000 0.586060
C 0.882800 0.617200 0.500000 0.586060
C 0.000000 0.617200 0.617200 0.586060
C 0.000000 0.617200 0.382800 0.586060
C 0.000000 0.382800 0.382800 0.586060
C 0.000000 0.382800 0.617200 0.586060
C 0.617200 -0.000000 0.617200 0.586060
C 0.382800 -0.000000 0.617200 0.586060
C 0.382800 -0.000000 0.382800 0.586060
C 0.617200 -0.000000 0.382800 0.586060
C 0.617200 0.117200 0.500000 0.586060
C 0.617200 0.882800 0.500000 0.586060
C 0.382800 0.882800 0.500000 0.586060
C 0.382800 0.117200 0.500000 0.586060
C 0.500000 0.117200 0.617200 0.586060
C 0.500000 0.117200 0.382800 0.586060
C 0.500000 0.882800 0.382800 0.586060
C 0.500000 0.882800 0.617200 0.586060
C 0.617200 0.500000 0.117200 0.586060
C 0.382800 0.500000 0.117200 0.586060
C 0.382800 0.500000 0.882800 0.586060
C 0.617200 0.500000 0.882800 0.586060
C 0.617200 0.617200 -0.000000 0.586060
C 0.617200 0.382800 -0.000000 0.586060
C 0.382800 0.382800 -0.000000 0.586060
C 0.382800 0.617200 -0.000000 0.586060
C 0.500000 0.617200 0.117200 0.586060
C 0.500000 0.617200 0.882800 0.586060
C 0.500000 0.382800 0.882800 0.586060
C 0.500000 0.382800 0.117200 0.586060
C 0.843500 -0.000000 0.156500 0.026361
C 0.843500 -0.000000 0.843500 0.026361
C 0.156500 0.000000 0.843500 0.026361
C 0.156500 0.156500 -0.000000 0.026361
C 0.156500 0.843500 -0.000000 0.026361
C 0.843500 0.843500 -0.000000 0.026361
C 0.843500 0.156500 -0.000000 0.026361
C 0.000000 0.156500 0.156500 0.026361
C 0.000000 0.156500 0.843500 0.026361
C 0.000000 0.843500 0.843500 0.026361
C 0.000000 0.843500 0.156500 0.026361
C 0.156500 0.500000 0.656500 0.026361
C 0.843500 0.500000 0.656500 0.026361
C 0.843500 0.500000 0.343500 0.026361
C 0.156500 0.500000 0.343500 0.026361
C 0.156500 0.656500 0.500000 0.026361
C 0.156500 0.343500 0.500000 0.026361
C 0.843500 0.343500 0.500000 0.026361
C 0.843500 0.656500 0.500000 0.026361
C 0.000000 0.656500 0.656500 0.026361
C 0.000000 0.656500 0.343500 0.026361
C 0.000000 0.343500 0.343500 0.026361
C 0.000000 0.343500 0.656500 0.026361
C 0.656500 -0.000000 0.656500 0.026361
C 0.343500 -0.000000 0.656500 0.026361
C 0.343500 -0.000000 0.343500 0.026361
C 0.656500 -0.000000 0.343500 0.026361
C 0.656500 0.156500 0.500000 0.026361
C 0.656500 0.843500 0.500000 0.026361
C 0.343500 0.843500 0.500000 0.026361
C 0.343500 0.156500 0.500000 0.026361
C 0.500000 0.156500 0.656500 0.026361
C 0.500000 0.156500 0.343500 0.026361
C 0.500000 0.843500 0.343500 0.026361
C 0.500000 0.843500 0.656500 0.026361
C 0.656500 0.500000 0.156500 0.026361
C 0.343500 0.500000 0.156500 0.026361
C 0.343500 0.500000 0.843500 0.026361
C 0.656500 0.500000 0.843500 0.026361
C 0.656500 0.656500 -0.000000 0.026361
C 0.656500 0.343500 -0.000000 0.026361
C 0.343500 0.343500 -0.000000 0.026361
C 0.343500 0.656500 -0.000000 0.026361
C 0.500000 0.656500 0.156500 0.026361
C 0.500000 0.656500 0.843500 0.026361
C 0.500000 0.343500 0.843500 0.026361
C 0.500000 0.343500 0.156500 0.026361
C 0.794200 -0.000000 0.144700 0.002083
C 0.794200 -0.000000 0.855300 0.002083
C 0.205800 -0.000000 0.855300 0.002083
C 0.144700 0.205800 -0.000000 0.002083
C 0.144700 0.794200 -0.000000 0.002083
C 0.855300 0.794200 -0.000000 0.002083
C 0.855300 0.205800 -0.000000 0.002083
C 0.000000 0.144700 0.205800 0.002083
C 0.000000 0.144700 0.794200 0.002083
C 0.000000 0.855300 0.794200 0.002083
C 0.000000 0.855300 0.205800 0.002083
C 0.000000 0.205800 0.855300 0.002083
C 0.000000 0.794200 0.855300 0.002083
C 0.000000 0.794200 0.144700 0.002083
C 0.000000 0.205800 0.144700 0.002083
C 0.205800 0.144700 -0.000000 0.002083
C 0.794200 0.144700 -0.000000 0.002083
C 0.794200 0.855300 -0.000000 0.002083
C 0.205800 0.855300 -0.000000 0.002083
C 0.144700 -0.000000 0.794200 0.002083
C 0.144700 -0.000000 0.205800 0.002083
C 0.855300 -0.000000 0.205800 0.002083
C 0.855300 -0.000000 0.794200 0.002083
C 0.205800 0.500000 0.644700 0.002083
C 0.794200 0.500000 0.644700 0.002083
C 0.794200 0.500000 0.355300 0.002083
C 0.205800 0.500000 0.355300 0.002083
C 0.144700 0.705800 0.500000 0.002083
C 0.144700 0.294200 0.500000 0.002083
C 0.855300 0.294200 0.500000 0.002083
C 0.855300 0.705800 0.500000 0.002083
C 0.000000 0.644700 0.705800 0.002083
C 0.000000 0.644700 0.294200 0.002083
C 0.000000 0.355300 0.294200 0.002083
C 0.000000 0.355300 0.705800 0.002083
C 0.000000 0.705800 0.355300 0.002083
C 0.000000 0.294200 0.355300 0.002083
C 0.000000 0.294200 0.644700 0.002083
C 0.000000 0.705800 0.644700 0.002083
C 0.205800 0.644700 0.500000 0.002083
C 0.794200 0.644700 0.500000 0.002083
C 0.794200 0.355300 0.500000 0.002083
C 0.205800 0.355300 0.500000 0.002083
C 0.144700 0.500000 0.294200 0.002083
C 0.144700 0.500000 0.705800 0.002083
C 0.855300 0.500000 0.705800 0.002083
C 0.855300 0.500000 0.294200 0.002083
C 0.705800 -0.000000 0.644700 0.002083
C 0.294200 -0.000000 0.644700 0.002083
C 0.294200 -0.000000 0.355300 0.002083
C 0.705800 -0.000000 0.355300 0.002083
C 0.644700 0.205800 0.500000 0.002083
C 0.644700 0.794200 0.500000 0.002083
C 0.355300 0.794200 0.500000 0.002083
C 0.355300 0.205800 0.500000 0.002083
C 0.500000 0.144700 0.705800 0.002083
C 0.500000 0.144700 0.294200 0.002083
C 0.500000 0.855300 0.294200 0.002083
C 0.500000 0.855300 0.705800 0.002083
C 0.500000 0.205800 0.355300 0.002083
C 0.500000 0.794200 0.355300 0.002083
C 0.500000 0.794200 0.644700 0.002083
C 0.500000 0.205800 0.644700 0.002083
C 0.705800 0.144700 0.500000 0.002083
C 0.294200 0.144700 0.500000 0.002083
C 0.294200 0.855300 0.500000 0.002083
C 0.705800 0.855300 0.500000 0.002083
C 0.644700 -0.000000 0.294200 0.002083
C 0.644700 -0.000000 0.705800 0.002083
C 0.355300 -0.000000 0.705800 0.002083
C 0.355300 -0.000000 0.294200 0.002083
C 0.705800 0.500000 0.144700 0.002083
C 0.294200 0.500000 0.144700 0.002083
C 0.294200 0.500000 0.855300 0.002083
C 0.705800 0.500000 0.855300 0.002083
C 0.644700 0.705800 -0.000000 0.002083
C 0.644700 0.294200 -0.000000 0.002083
C 0.355300 0.294200 -0.000000 0.002083
C 0.355300 0.705800 -0.000000 0.002083
C 0.500000 0.644700 0.205800 0.002083
C 0.500000 0.644700 0.794200 0.002083
C 0.500000 0.355300 0.794200 0.002083
C 0.500000 0.355300 0.205800 0.002083
C 0.500000 0.705800 0.855300 0.002083
C 0.500000 0.294200 0.855300 0.002083
C 0.500000 0.294200 0.144700 0.002083
C 0.500000 0.705800 0.144700 0.002083
C 0.705800 0.644700 -0.000000 0.002083
C 0.294200 0.644700 -0.000000 0.002083
C 0.294200 0.355300 -0.000000 0.002083
C 0.705800 0.355300 -0.000000 0.002083
C 0.644700 0.500000 0.794200 0.002083
C 0.644700 0.500000 0.205800 0.002083
C 0.355300 0.500000 0.205800 0.002083
C 0.355300 0.500000 0.794200 0.002083
H 0.785100 -0.000000 0.111400 0.097751
H 0.785100 -0.000000 0.888600 0.097751
H 0.214900 -0.000000 0.888600 0.097751
H 0.111400 0.214900 -0.000000 0.097751
H 0.111400 0.785100 -0.000000 0.097751
H 0.888600 0.785100 -0.000000 0.097751
H 0.888600 0.214900 -0.000000 0.097751
H 0.000000 0.111400 0.214900 0.097751
H 0.000000 0.111400 0.785100 0.097751
H 0.000000 0.888600 0.785100 0.097751
H 0.000000 0.888600 0.214900 0.097751
H 0.000000 0.214900 0.888600 0.097751
H 0.000000 0.785100 0.888600 0.097751
H 0.000000 0.785100 0.111400 0.097751
H 0.000000 0.214900 0.111400 0.097751
H 0.214900 0.111400 -0.000000 0.097751
H 0.785100 0.111400 -0.000000 0.097751
H 0.785100 0.888600 -0.000000 0.097751
H 0.214900 0.888600 -0.000000 0.097751
H 0.111400 -0.000000 0.785100 0.097751
H 0.111400 -0.000000 0.214900 0.097751
H 0.888600 -0.000000 0.214900 0.097751
H 0.888600 -0.000000 0.785100 0.097751
H 0.214900 0.500000 0.611400 0.097751
H 0.785100 0.500000 0.611400 0.097751
H 0.785100 0.500000 0.388600 0.097751
H 0.214900 0.500000 0.388600 0.097751
H 0.111400 0.714900 0.500000 0.097751
H 0.111400 0.285100 0.500000 0.097751
H 0.888600 0.285100 0.500000 0.097751
H 0.888600 0.714900 0.500000 0.097751
H 0.000000 0.611400 0.714900 0.097751
H 0.000000 0.611400 0.285100 0.097751
H 0.000000 0.388600 0.285100 0.097751
H 0.000000 0.388600 0.714900 0.097751
H 0.000000 0.714900 0.388600 0.097751
H 0.000000 0.285100 0.388600 0.097751
H 0.000000 0.285100 0.611400 0.097751
H 0.000000 0.714900 0.611400 0.097751
H 0.214900 0.611400 0.500000 0.097751
H 0.785100 0.611400 0.500000 0.097751
H 0.785100 0.388600 0.500000 0.097751
H 0.214900 0.388600 0.500000 0.097751
H 0.111400 0.500000 0.285100 0.097751
H 0.111400 0.500000 0.714900 0.097751
H 0.888600 0.500000 0.714900 0.097751
H 0.888600 0.500000 0.285100 0.097751
H 0.714900 -0.000000 0.611400 0.097751
H 0.285100 -0.000000 0.611400 0.097751
H 0.285100 -0.000000 0.388600 0.097751
H 0.714900 -0.000000 0.388600 0.097751
H 0.611400 0.214900 0.500000 0.097751
H 0.611400 0.785100 0.500000 0.097751
H 0.388600 0.785100 0.500000 0.097751
H 0.388600 0.214900 0.500000 0.097751
H 0.500000 0.111400 0.714900 0.097751
H 0.500000 0.111400 0.285100 0.097751
H 0.500000 0.888600 0.285100 0.097751
H 0.500000 0.888600 0.714900 0.097751
H 0.500000 0.214900 0.388600 0.097751
H 0.500000 0.785100 0.388600 0.097751
H 0.500000 0.785100 0.611400 0.097751
H 0.500000 0.214900 0.611400 0.097751
H 0.714900 0.111400 0.500000 0.097751
H 0.285100 0.111400 0.500000 0.097751
H 0.285100 0.888600 0.500000 0.097751
H 0.714900 0.888600 0.500000 0.097751
H 0.611400 -0.000000 0.285100 0.097751
H 0.611400 -0.000000 0.714900 0.097751
H 0.388600 -0.000000 0.714900 0.097751
H 0.388600 -0.000000 0.285100 0.097751
H 0.714900 0.500000 0.111400 0.097751
H 0.285100 0.500000 0.111400 0.097751
H 0.285100 0.500000 0.888600 0.097751
H 0.714900 0.500000 0.888600 0.097751
H 0.611400 0.714900 -0.000000 0.097751
H 0.611400 0.285100 -0.000000 0.097751
H 0.388600 0.285100 -0.000000 0.097751
H 0.388600 0.714900 -0.000000 0.097751
H 0.500000 0.611400 0.214900 0.097751
H 0.500000 0.611400 0.785100 0.097751
H 0.500000 0.388600 0.785100 0.097751
H 0.500000 0.388600 0.214900 0.097751
H 0.500000 0.714900 0.888600 0.097751
H 0.500000 0.285100 0.888600 0.097751
H 0.500000 0.285100 0.111400 0.097751
H 0.500000 0.714900 0.111400 0.097751
H 0.714900 0.611400 -0.000000 0.097751
H 0.285100 0.611400 -0.000000 0.097751
H 0.285100 0.388600 -0.000000 0.097751
H 0.714900 0.388600 -0.000000 0.097751
H 0.611400 0.500000 0.785100 0.097751
H 0.611400 0.500000 0.214900 0.097751
H 0.388600 0.500000 0.214900 0.097751
H 0.388600 0.500000 0.785100 0.097751
C 0.758000 0.000000 0.179500 -0.182137
C 0.758000 0.000000 0.820500 -0.182137
C 0.242000 -0.000000 0.820500 -0.182137
C 0.179500 0.242000 -0.000000 -0.182137
C 0.179500 0.758000 -0.000000 -0.182137
C 0.820500 0.758000 -0.000000 -0.182137
C 0.820500 0.242000 -0.000000 -0.182137
C 0.000000 0.179500 0.242000 -0.182137
C 0.000000 0.179500 0.758000 -0.182137
C 0.000000 0.820500 0.758000 -0.182137
C 0.000000 0.820500 0.242000 -0.182137
C 0.000000 0.242000 0.820500 -0.182137
C 0.000000 0.758000 0.820500 -0.182137
C 0.000000 0.758000 0.179500 -0.182137
C 0.000000 0.242000 0.179500 -0.182137
C 0.242000 0.179500 -0.000000 -0.182137
C 0.758000 0.179500 -0.000000 -0.182137
C 0.758000 0.820500 -0.000000 -0.182137
C 0.242000 0.820500 -0.000000 -0.182137
C 0.179500 -0.000000 0.758000 -0.182137
C 0.179500 -0.000000 0.242000 -0.182137
C 0.820500 -0.000000 0.242000 -0.182137
C 0.820500 -0.000000 0.758000 -0.182137
C 0.242000 0.500000 0.679500 -0.182137
C 0.758000 0.500000 0.679500 -0.182137
C 0.758000 0.500000 0.320500 -0.182137
C 0.242000 0.500000 0.320500 -0.182137
C 0.179500 0.742000 0.500000 -0.182137
C 0.179500 0.258000 0.500000 -0.182137
C 0.820500 0.258000 0.500000 -0.182137
C 0.820500 0.742000 0.500000 -0.182137
C 0.000000 0.679500 0.742000 -0.182137
C 0.000000 0.679500 0.258000 -0.182137
C 0.000000 0.320500 0.258000 -0.182137
C 0.000000 0.320500 0.742000 -0.182137
C 0.000000 0.742000 0.320500 -0.182137
C 0.000000 0.258000 0.320500 -0.182137
C 0.000000 0.258000 0.679500 -0.182137
C 0.000000 0.742000 0.679500 -0.182137
C 0.242000 0.679500 0.500000 -0.182137
C 0.758000 0.679500 0.500000 -0.182137
C 0.758000 0.320500 0.500000 -0.182137
C 0.242000 0.320500 0.500000 -0.182137
C 0.179500 0.500000 0.258000 -0.182137
C 0.179500 0.500000 0.742000 -0.182137
C 0.820500 0.500000 0.742000 -0.182137
C 0.820500 0.500000 0.258000 -0.182137
C 0.742000 -0.000000 0.679500 -0.182137
C 0.258000 -0.000000 0.679500 -0.182137
C 0.258000 -0.000000 0.320500 -0.182137
C 0.742000 -0.000000 0.320500 -0.182137
C 0.679500 0.242000 0.500000 -0.182137
C 0.679500 0.758000 0.500000 -0.182137
C 0.320500 0.758000 0.500000 -0.182137
C 0.320500 0.242000 0.500000 -0.182137
C 0.500000 0.179500 0.742000 -0.182137
C 0.500000 0.179500 0.258000 -0.182137
C 0.500000 0.820500 0.258000 -0.182137
C 0.500000 0.820500 0.742000 -0.182137
C 0.500000 0.242000 0.320500 -0.182137
C 0.500000 0.758000 0.320500 -0.182137
C 0.500000 0.758000 0.679500 -0.182137
C 0.500000 0.242000 0.679500 -0.182137
C 0.742000 0.179500 0.500000 -0.182137
C 0.258000 0.179500 0.500000 -0.182137
C 0.258000 0.820500 0.500000 -0.182137
C 0.742000 0.820500 0.500000 -0.182137
C 0.679500 -0.000000 0.258000 -0.182137
C 0.679500 -0.000000 0.742000 -0.182137
C 0.320500 -0.000000 0.742000 -0.182137
C 0.320500 -0.000000 0.258000 -0.182137
C 0.742000 0.500000 0.179500 -0.182137
C 0.258000 0.500000 0.179500 -0.182137
C 0.258000 0.500000 0.820500 -0.182137
C 0.742000 0.500000 0.820500 -0.182137
C 0.679500 0.742000 -0.000000 -0.182137
C 0.679500 0.258000 -0.000000 -0.182137
C 0.320500 0.258000 -0.000000 -0.182137
C 0.320500 0.742000 -0.000000 -0.182137
C 0.500000 0.679500 0.242000 -0.182137
C 0.500000 0.679500 0.758000 -0.182137
C 0.500000 0.320500 0.758000 -0.182137
C 0.500000 0.320500 0.242000 -0.182137
C 0.500000 0.742000 0.820500 -0.182137
C 0.500000 0.258000 0.820500 -0.182137
C 0.500000 0.258000 0.179500 -0.182137
C 0.500000 0.742000 0.179500 -0.182137
C 0.742000 0.679500 -0.000000 -0.182137
C 0.258000 0.679500 -0.000000 -0.182137
C 0.258000 0.320500 -0.000000 -0.182137
C 0.742000 0.320500 -0.000000 -0.182137
C 0.679500 0.500000 0.758000 -0.182137
C 0.679500 0.500000 0.242000 -0.182137
C 0.320500 0.500000 0.242000 -0.182137
C 0.320500 0.500000 0.758000 -0.182137
H 0.724900 -0.000000 0.169500 0.094821
H 0.724900 -0.000000 0.830500 0.094821
H 0.275100 -0.000000 0.830500 0.094821
H 0.169500 0.275100 -0.000000 0.094821
H 0.169500 0.724900 -0.000000 0.094821
H 0.830500 0.724900 -0.000000 0.094821
H 0.830500 0.275100 -0.000000 0.094821
H 0.000000 0.169500 0.275100 0.094821
H 0.000000 0.169500 0.724900 0.094821
H 0.000000 0.830500 0.724900 0.094821
H 0.000000 0.830500 0.275100 0.094821
H 0.000000 0.275100 0.830500 0.094821
H 0.000000 0.724900 0.830500 0.094821
H 0.000000 0.724900 0.169500 0.094821
H 0.000000 0.275100 0.169500 0.094821
H 0.275100 0.169500 -0.000000 0.094821
H 0.724900 0.169500 -0.000000 0.094821
H 0.724900 0.830500 -0.000000 0.094821
H 0.275100 0.830500 -0.000000 0.094821
H 0.169500 -0.000000 0.724900 0.094821
H 0.169500 -0.000000 0.275100 0.094821
H 0.830500 -0.000000 0.275100 0.094821
H 0.830500 -0.000000 0.724900 0.094821
H 0.275100 0.500000 0.669500 0.094821
H 0.724900 0.500000 0.669500 0.094821
H 0.724900 0.500000 0.330500 0.094821
H 0.275100 0.500000 0.330500 0.094821
H 0.169500 0.775100 0.500000 0.094821
H 0.169500 0.224900 0.500000 0.094821
H 0.830500 0.224900 0.500000 0.094821
H 0.830500 0.775100 0.500000 0.094821
H 0.000000 0.669500 0.775100 0.094821
H 0.000000 0.669500 0.224900 0.094821
H 0.000000 0.330500 0.224900 0.094821
H 0.000000 0.330500 0.775100 0.094821
H 0.000000 0.775100 0.330500 0.094821
H 0.000000 0.224900 0.330500 0.094821
H 0.000000 0.224900 0.669500 0.094821
H 0.000000 0.775100 0.669500 0.094821
H 0.275100 0.669500 0.500000 0.094821
H 0.724900 0.669500 0.500000 0.094821
H 0.724900 0.330500 0.500000 0.094821
H 0.275100 0.330500 0.500000 0.094821
H 0.169500 0.500000 0.224900 0.094821
H 0.169500 0.500000 0.775100 0.094821
H 0.830500 0.500000 0.775100 0.094821
H 0.830500 0.500000 0.224900 0.094821
H 0.775100 -0.000000 0.669500 0.094821
H 0.224900 -0.000000 0.669500 0.094821
H 0.224900 -0.000000 0.330500 0.094821
H 0.775100 -0.000000 0.330500 0.094821
H 0.669500 0.275100 0.500000 0.094821
H 0.669500 0.724900 0.500000 0.094821
H 0.330500 0.724900 0.500000 0.094821
H 0.330500 0.275100 0.500000 0.094821
H 0.500000 0.169500 0.775100 0.094821
H 0.500000 0.169500 0.224900 0.094821
H 0.500000 0.830500 0.224900 0.094821
H 0.500000 0.830500 0.775100 0.094821
H 0.500000 0.275100 0.330500 0.094821
H 0.500000 0.724900 0.330500 0.094821
H 0.500000 0.724900 0.669500 0.094821
H 0.500000 0.275100 0.669500 0.094821
H 0.775100 0.169500 0.500000 0.094821
H 0.224900 0.169500 0.500000 0.094821
H 0.224900 0.830500 0.500000 0.094821
H 0.775100 0.830500 0.500000 0.094821
H 0.669500 -0.000000 0.224900 0.094821
H 0.669500 -0.000000 0.775100 0.094821
H 0.330500 -0.000000 0.775100 0.094821
H 0.330500 -0.000000 0.224900 0.094821
H 0.775100 0.500000 0.169500 0.094821
H 0.224900 0.500000 0.169500 0.094821
H 0.224900 0.500000 0.830500 0.094821
H 0.775100 0.500000 0.830500 0.094821
H 0.669500 0.775100 -0.000000 0.094821
H 0.669500 0.224900 -0.000000 0.094821
H 0.330500 0.224900 -0.000000 0.094821
H 0.330500 0.775100 -0.000000 0.094821
H 0.500000 0.669500 0.275100 0.094821
H 0.500000 0.669500 0.724900 0.094821
H 0.500000 0.330500 0.724900 0.094821
H 0.500000 0.330500 0.275100 0.094821
H 0.500000 0.775100 0.830500 0.094821
H 0.500000 0.224900 0.830500 0.094821
H 0.500000 0.224900 0.169500 0.094821
H 0.500000 0.775100 0.169500 0.094821
H 0.775100 0.669500 -0.000000 0.094821
H 0.224900 0.669500 -0.000000 0.094821
H 0.224900 0.330500 -0.000000 0.094821
H 0.775100 0.330500 -0.000000 0.094821
H 0.669500 0.500000 0.724900 0.094821
H 0.669500 0.500000 0.275100 0.094821
H 0.330500 0.500000 0.275100 0.094821
H 0.330500 0.500000 0.724900 0.094821
C 0.769300 -0.000000 0.230700 0.059724
C 0.769300 -0.000000 0.769300 0.059724
C 0.230700 -0.000000 0.769300 0.059724
C 0.230700 0.230700 -0.000000 0.059724
C 0.230700 0.769300 -0.000000 0.059724
C 0.769300 0.769300 -0.000000 0.059724
C 0.769300 0.230700 -0.000000 0.059724
C 0.000000 0.230700 0.230700 0.059724
C 0.000000 0.230700 0.769300 0.059724
C 0.000000 0.769300 0.769300 0.059724
C 0.000000 0.769300 0.230700 0.059724
C 0.230700 0.500000 0.730700 0.059724
C 0.769300 0.500000 0.730700 0.059724
C 0.769300 0.500000 0.269300 0.059724
C 0.230700 0.500000 0.269300 0.059724
C 0.230700 0.730700 0.500000 0.059724
C 0.230700 0.269300 0.500000 0.059724
C 0.769300 0.269300 0.500000 0.059724
C 0.769300 0.730700 0.500000 0.059724
C 0.000000 0.730700 0.730700 0.059724
C 0.000000 0.730700 0.269300 0.059724
C 0.000000 0.269300 0.269300 0.059724
C 0.000000 0.269300 0.730700 0.059724
C 0.730700 -0.000000 0.730700 0.059724
C 0.269300 -0.000000 0.730700 0.059724
C 0.269300 -0.000000 0.269300 0.059724
C 0.730700 -0.000000 0.269300 0.059724
C 0.730700 0.230700 0.500000 0.059724
C 0.730700 0.769300 0.500000 0.059724
C 0.269300 0.769300 0.500000 0.059724
C 0.269300 0.230700 0.500000 0.059724
C 0.500000 0.230700 0.730700 0.059724
C 0.500000 0.230700 0.269300 0.059724
C 0.500000 0.769300 0.269300 0.059724
C 0.500000 0.769300 0.730700 0.059724
C 0.730700 0.500000 0.230700 0.059724
C 0.269300 0.500000 0.230700 0.059724
C 0.269300 0.500000 0.769300 0.059724
C 0.730700 0.500000 0.769300 0.059724
C 0.730700 0.730700 -0.000000 0.059724
C 0.730700 0.269300 -0.000000 0.059724
C 0.269300 0.269300 -0.000000 0.059724
C 0.269300 0.730700 -0.000000 0.059724
C 0.500000 0.730700 0.230700 0.059724
C 0.500000 0.730700 0.769300 0.059724
C 0.500000 0.269300 0.769300 0.059724
C 0.500000 0.269300 0.230700 0.059724
